
     RDKit          3D

 22 22  0  0  0  0  0  0  0  0999 V2000
    5.3787   12.2812   25.9165 C   0  0  0  0  0  0  0  0  0  0  0  0
    6.2515   11.0628   26.1107 C   0  0  0  0  0  0  0  0  0  0  0  0
    6.6365   11.0610   27.5623 C   0  0  0  0  0  0  0  0  0  0  0  0
    5.4015    9.8329   25.9756 C   0  0  0  0  0  0  0  0  0  0  0  0
    7.4212   11.0476   25.1818 C   0  0  0  0  0  0  0  0  0  0  0  0
    8.0973   12.1452   24.5963 C   0  0  0  0  0  0  0  0  0  0  0  0
    9.1331   11.6066   23.8644 C   0  0  0  0  0  0  0  0  0  0  0  0
   10.1740   12.1937   23.1721 N   0  0  0  0  0  0  0  0  0  0  0  0
   10.5372   13.5221   23.3964 C   0  0  0  0  0  0  0  0  0  0  0  0
    9.9990   14.2576   24.2196 O   0  0  0  0  0  0  0  0  0  0  0  0
   11.6852   13.9500   22.5281 C   0  0  2  0  0  0  0  0  0  0  0  0
   12.7929   12.9707   22.6483 C   0  0  0  0  0  0  0  0  0  0  0  0
   13.5452   12.7765   24.4395 Br  0  0  0  0  0  0  0  0  0  0  0  0
   12.2614   15.2869   22.8453 C   0  0  0  0  0  0  0  0  0  0  0  0
   11.4747   16.3027   22.4782 F   0  0  0  0  0  0  0  0  0  0  0  0
   12.5012   15.4153   24.1592 F   0  0  0  0  0  0  0  0  0  0  0  0
   13.4229   15.4741   22.1865 F   0  0  0  0  0  0  0  0  0  0  0  0
    9.0077   10.2535   24.0149 N   0  0  0  0  0  0  0  0  0  0  0  0
    9.9760    9.2399   23.6734 C   0  0  0  0  0  0  0  0  0  0  0  0
    9.7078    8.6865   22.3238 C   0  0  0  0  0  0  0  0  0  0  0  0
   10.6725    9.2762   21.4961 O   0  0  0  0  0  0  0  0  0  0  0  0
    7.9757    9.8919   24.7977 N   0  0  0  0  0  0  0  0  0  0  0  0
  1  2  1  0
  2  3  1  0
  2  4  1  0
  2  5  1  0
  5  6  1  0
  6  7  2  0
  7  8  1  0
  8  9  1  0
  9 10  2  0
  9 11  1  0
 11 12  1  1
 12 13  1  0
 11 14  1  0
 14 15  1  0
 14 16  1  0
 14 17  1  0
  7 18  1  0
 18 19  1  0
 19 20  1  0
 20 21  1  0
 18 22  1  0
 22  5  2  0
M  END
$$$$

     RDKit          3D

 22 22  0  0  0  0  0  0  0  0999 V2000
    5.4571   12.3101   25.8768 C   0  0  0  0  0  0  0  0  0  0  0  0
    6.3160   11.0842   26.0880 C   0  0  0  0  0  0  0  0  0  0  0  0
    6.6839   11.0894   27.5422 C   0  0  0  0  0  0  0  0  0  0  0  0
    5.4460    9.8667   25.9562 C   0  0  0  0  0  0  0  0  0  0  0  0
    7.4879   11.0502   25.1571 C   0  0  0  0  0  0  0  0  0  0  0  0
    8.2369   12.1363   24.6342 C   0  0  0  0  0  0  0  0  0  0  0  0
    9.1537   11.5830   23.7649 C   0  0  0  0  0  0  0  0  0  0  0  0
   10.1844   12.1270   23.0199 N   0  0  0  0  0  0  0  0  0  0  0  0
   10.7122   13.3738   23.3339 C   0  0  0  0  0  0  0  0  0  0  0  0
   10.3971   14.0196   24.3307 O   0  0  0  0  0  0  0  0  0  0  0  0
   11.6611   13.8663   22.2789 C   0  0  1  0  0  0  0  0  0  0  0  0
   10.8111   14.4329   21.1785 C   0  0  0  0  0  0  0  0  0  0  0  0
   11.7287   14.3256   19.4835 Br  0  0  0  0  0  0  0  0  0  0  0  0
   12.5172   14.9521   22.8604 C   0  0  0  0  0  0  0  0  0  0  0  0
   13.3792   15.4407   21.9511 F   0  0  0  0  0  0  0  0  0  0  0  0
   11.7935   16.0087   23.2880 F   0  0  0  0  0  0  0  0  0  0  0  0
   13.2368   14.4696   23.8969 F   0  0  0  0  0  0  0  0  0  0  0  0
    8.8795   10.2468   23.7730 N   0  0  0  0  0  0  0  0  0  0  0  0
    9.4996    9.2134   22.9700 C   0  0  0  0  0  0  0  0  0  0  0  0
   10.8834    9.0558   23.4902 C   0  0  0  0  0  0  0  0  0  0  0  0
   11.3546    7.7833   23.1849 O   0  0  0  0  0  0  0  0  0  0  0  0
    7.9377    9.8905   24.6600 N   0  0  0  0  0  0  0  0  0  0  0  0
  1  2  1  0
  2  3  1  0
  2  4  1  0
  2  5  1  0
  5  6  1  0
  6  7  2  0
  7  8  1  0
  8  9  1  0
  9 10  2  0
  9 11  1  0
 11 12  1  6
 12 13  1  0
 11 14  1  0
 14 15  1  0
 14 16  1  0
 14 17  1  0
  7 18  1  0
 18 19  1  0
 19 20  1  0
 20 21  1  0
 18 22  1  0
 22  5  2  0
M  END
$$$$

     RDKit          3D

 23 24  0  0  0  0  0  0  0  0999 V2000
    9.8372    8.5478   22.8274 C   0  0  0  0  0  0  0  0  0  0  0  0
    9.6508    9.9664   23.1100 C   0  0  0  0  0  0  0  0  0  0  0  0
   10.4690   11.0017   22.6505 C   0  0  0  0  0  0  0  0  0  0  0  0
   10.0155   12.1359   23.2410 C   0  0  0  0  0  0  0  0  0  0  0  0
    8.8745   11.7472   23.8639 N   0  0  0  0  0  0  0  0  0  0  0  0
    8.6368   10.4305   23.8449 N   0  0  0  0  0  0  0  0  0  0  0  0
    7.8903   12.6954   24.2746 C   0  0  1  0  0  0  0  0  0  0  0  0
    7.0499   12.1734   25.3787 C   0  0  0  0  0  0  0  0  0  0  0  0
    6.0083   13.0179   25.5245 F   0  0  0  0  0  0  0  0  0  0  0  0
    7.7427   12.1796   26.5352 F   0  0  0  0  0  0  0  0  0  0  0  0
    6.5214   10.9523   25.2146 F   0  0  0  0  0  0  0  0  0  0  0  0
    8.4882   14.0559   24.6399 C   0  0  0  0  0  0  0  0  0  0  0  0
   10.0034   14.1694   24.5091 C   0  0  0  0  0  0  0  0  0  0  0  0
   10.4876   13.4274   23.3672 N   0  0  0  0  0  0  0  0  0  0  0  0
   11.5278   13.8433   22.5493 C   0  0  0  0  0  0  0  0  0  0  0  0
   11.5417   13.6527   21.3389 O   0  0  0  0  0  0  0  0  0  0  0  0
   12.6509   14.6379   23.0994 C   0  0  1  0  0  0  0  0  0  0  0  0
   12.2031   16.0101   23.4378 C   0  0  0  0  0  0  0  0  0  0  0  0
   11.9841   16.7872   22.2789 O   0  0  0  0  0  0  0  0  0  0  0  0
   13.2322   13.9301   24.2702 C   0  0  0  0  0  0  0  0  0  0  0  0
   14.4469   14.3682   24.6198 F   0  0  0  0  0  0  0  0  0  0  0  0
   13.3901   12.6110   24.0419 F   0  0  0  0  0  0  0  0  0  0  0  0
   12.4424   14.0706   25.3565 F   0  0  0  0  0  0  0  0  0  0  0  0
  1  2  1  0
  2  3  1  0
  3  4  2  0
  4  5  1  0
  5  6  1  0
  5  7  1  0
  7  8  1  1
  8  9  1  0
  8 10  1  0
  8 11  1  0
  7 12  1  0
 12 13  1  0
 13 14  1  0
 14 15  1  0
 15 16  2  0
 15 17  1  0
 17 18  1  1
 18 19  1  0
 17 20  1  0
 20 21  1  0
 20 22  1  0
 20 23  1  0
  6  2  2  0
 14  4  1  0
M  END
$$$$

     RDKit          3D

 23 24  0  0  0  0  0  0  0  0999 V2000
   10.0034    8.4517   22.9143 C   0  0  0  0  0  0  0  0  0  0  0  0
    9.6375    9.8401   23.1562 C   0  0  0  0  0  0  0  0  0  0  0  0
   10.3954   10.9412   22.7546 C   0  0  0  0  0  0  0  0  0  0  0  0
    9.7453   12.0240   23.2469 C   0  0  0  0  0  0  0  0  0  0  0  0
    8.5959   11.5379   23.7730 N   0  0  0  0  0  0  0  0  0  0  0  0
    8.5222   10.2030   23.8004 N   0  0  0  0  0  0  0  0  0  0  0  0
    7.5072   12.3789   24.1798 C   0  0  1  0  0  0  0  0  0  0  0  0
    6.9301   11.9011   25.4538 C   0  0  0  0  0  0  0  0  0  0  0  0
    5.8541   12.6687   25.7226 F   0  0  0  0  0  0  0  0  0  0  0  0
    7.8084   12.0719   26.4611 F   0  0  0  0  0  0  0  0  0  0  0  0
    6.5029   10.6317   25.4649 F   0  0  0  0  0  0  0  0  0  0  0  0
    7.9003   13.8475   24.3289 C   0  0  0  0  0  0  0  0  0  0  0  0
    9.3900   14.0328   24.4743 C   0  0  0  0  0  0  0  0  0  0  0  0
   10.0683   13.3506   23.3946 N   0  0  0  0  0  0  0  0  0  0  0  0
   11.3687   13.6948   23.0444 C   0  0  0  0  0  0  0  0  0  0  0  0
   11.8751   13.5477   21.9465 O   0  0  0  0  0  0  0  0  0  0  0  0
   12.0641   14.2607   24.2080 C   0  0  2  0  0  0  0  0  0  0  0  0
   11.8582   15.7221   24.2587 C   0  0  0  0  0  0  0  0  0  0  0  0
   11.1915   15.9148   25.4995 O   0  0  0  0  0  0  0  0  0  0  0  0
   13.4970   14.0245   24.1280 C   0  0  0  0  0  0  0  0  0  0  0  0
   13.8020   12.7344   23.9058 F   0  0  0  0  0  0  0  0  0  0  0  0
   14.0734   14.3413   25.3035 F   0  0  0  0  0  0  0  0  0  0  0  0
   13.9996   14.8024   23.1645 F   0  0  0  0  0  0  0  0  0  0  0  0
  1  2  1  0
  2  3  1  0
  3  4  2  0
  4  5  1  0
  5  6  1  0
  5  7  1  0
  7  8  1  1
  8  9  1  0
  8 10  1  0
  8 11  1  0
  7 12  1  0
 12 13  1  0
 13 14  1  0
 14 15  1  0
 15 16  2  0
 15 17  1  0
 17 18  1  6
 18 19  1  0
 17 20  1  0
 20 21  1  0
 20 22  1  0
 20 23  1  0
  6  2  2  0
 14  4  1  0
M  END
$$$$

     RDKit          3D

 25 26  0  0  0  0  0  0  0  0999 V2000
   11.1523    8.4132   23.0644 C   0  0  0  0  0  0  0  0  0  0  0  0
   10.2376    9.2177   23.9240 C   0  0  2  0  0  0  0  0  0  0  0  0
    8.9890    8.5856   24.0968 C   0  0  0  0  0  0  0  0  0  0  0  0
    7.8599    8.4764   24.2781 N   0  0  0  0  0  0  0  0  0  0  0  0
    9.7741   10.4483   23.3092 C   0  0  0  0  0  0  0  0  0  0  0  0
    9.9567   10.7261   22.1370 O   0  0  0  0  0  0  0  0  0  0  0  0
    8.9657   11.3019   24.1020 N   0  0  0  0  0  0  0  0  0  0  0  0
    8.3339   10.9586   25.2674 N   0  0  0  0  0  0  0  0  0  0  0  0
    7.3676   11.8762   25.4020 C   0  0  0  0  0  0  0  0  0  0  0  0
    6.3997   11.8894   26.5328 C   0  0  0  0  0  0  0  0  0  0  0  0
    5.7588   10.6347   27.0795 C   0  0  0  0  0  0  0  0  0  0  0  0
    4.4155   10.9755   27.6761 C   0  0  0  0  0  0  0  0  0  0  0  0
    5.5248    9.6032   26.0288 C   0  0  0  0  0  0  0  0  0  0  0  0
    6.5374   10.0505   28.2223 C   0  0  0  0  0  0  0  0  0  0  0  0
    7.5356   12.9296   24.4633 C   0  0  0  0  0  0  0  0  0  0  0  0
    8.6745   12.6037   23.7723 C   0  0  0  0  0  0  0  0  0  0  0  0
    9.5261   13.3371   22.9644 N   0  0  0  0  0  0  0  0  0  0  0  0
   10.8867   13.1206   23.1864 C   0  0  0  0  0  0  0  0  0  0  0  0
   11.3525   12.6454   24.2237 O   0  0  0  0  0  0  0  0  0  0  0  0
   11.7535   13.5083   22.0500 C   0  0  0  0  0  0  0  0  0  0  0  0
   12.3753   14.7569   22.3777 N   0  0  0  0  0  0  0  0  0  0  0  0
   13.0183   15.4964   21.4474 C   0  0  0  0  0  0  0  0  0  0  0  0
   12.6754   16.7422   21.6785 N   0  0  0  0  0  0  0  0  0  0  0  0
   12.0503   16.7699   22.8804 N   0  0  0  0  0  0  0  0  0  0  0  0
   11.8570   15.5504   23.3261 N   0  0  0  0  0  0  0  0  0  0  0  0
  2  1  1  6
  2  3  1  0
  3  4  3  0
  2  5  1  0
  5  6  2  0
  5  7  1  0
  7  8  1  0
  8  9  2  0
  9 10  1  0
 10 11  1  0
 11 12  1  0
 11 13  1  0
 11 14  1  0
  9 15  1  0
 15 16  2  0
 16 17  1  0
 17 18  1  0
 18 19  2  0
 18 20  1  0
 20 21  1  0
 21 22  1  0
 22 23  2  0
 23 24  1  0
 24 25  2  0
 16  7  1  0
 25 21  1  0
M  END
$$$$

     RDKit          3D

 25 26  0  0  0  0  0  0  0  0999 V2000
   11.1523    8.4132   23.0644 C   0  0  0  0  0  0  0  0  0  0  0  0
   10.2376    9.2177   23.9240 C   0  0  2  0  0  0  0  0  0  0  0  0
    8.9890    8.5856   24.0968 C   0  0  0  0  0  0  0  0  0  0  0  0
    7.8599    8.4764   24.2781 N   0  0  0  0  0  0  0  0  0  0  0  0
    9.7741   10.4483   23.3092 C   0  0  0  0  0  0  0  0  0  0  0  0
    9.9567   10.7261   22.1370 O   0  0  0  0  0  0  0  0  0  0  0  0
    8.9657   11.3019   24.1020 N   0  0  0  0  0  0  0  0  0  0  0  0
    8.3339   10.9586   25.2674 N   0  0  0  0  0  0  0  0  0  0  0  0
    7.3676   11.8762   25.4020 C   0  0  0  0  0  0  0  0  0  0  0  0
    6.3997   11.8894   26.5328 C   0  0  0  0  0  0  0  0  0  0  0  0
    5.7588   10.6347   27.0795 C   0  0  0  0  0  0  0  0  0  0  0  0
    4.4155   10.9755   27.6761 C   0  0  0  0  0  0  0  0  0  0  0  0
    5.5248    9.6032   26.0288 C   0  0  0  0  0  0  0  0  0  0  0  0
    6.5374   10.0505   28.2223 C   0  0  0  0  0  0  0  0  0  0  0  0
    7.5356   12.9296   24.4633 C   0  0  0  0  0  0  0  0  0  0  0  0
    8.6745   12.6037   23.7723 C   0  0  0  0  0  0  0  0  0  0  0  0
    9.5261   13.3371   22.9644 N   0  0  0  0  0  0  0  0  0  0  0  0
   10.8867   13.1206   23.1864 C   0  0  0  0  0  0  0  0  0  0  0  0
   11.3525   12.6454   24.2237 O   0  0  0  0  0  0  0  0  0  0  0  0
   11.7535   13.5083   22.0500 C   0  0  0  0  0  0  0  0  0  0  0  0
   12.3753   14.7569   22.3777 N   0  0  0  0  0  0  0  0  0  0  0  0
   13.0183   15.4964   21.4474 C   0  0  0  0  0  0  0  0  0  0  0  0
   12.6754   16.7422   21.6785 N   0  0  0  0  0  0  0  0  0  0  0  0
   12.0503   16.7699   22.8804 N   0  0  0  0  0  0  0  0  0  0  0  0
   11.8570   15.5504   23.3261 N   0  0  0  0  0  0  0  0  0  0  0  0
  2  1  1  6
  2  3  1  0
  3  4  3  0
  2  5  1  0
  5  6  2  0
  5  7  1  0
  7  8  1  0
  8  9  2  0
  9 10  1  0
 10 11  1  0
 11 12  1  0
 11 13  1  0
 11 14  1  0
  9 15  1  0
 15 16  2  0
 16 17  1  0
 17 18  1  0
 18 19  2  0
 18 20  1  0
 20 21  1  0
 21 22  1  0
 22 23  2  0
 23 24  1  0
 24 25  2  0
 16  7  1  0
 25 21  1  0
M  END
$$$$

     RDKit          3D

 24 24  0  0  0  0  0  0  0  0999 V2000
    8.1186   15.5144   17.2982 C   0  0  0  0  0  0  0  0  0  0  0  0
    8.2983   16.8790   17.8539 C   0  0  0  0  0  0  0  0  0  0  0  0
    9.6203   16.8515   18.5149 C   0  0  0  0  0  0  0  0  0  0  0  0
    9.5907   15.9593   19.6821 C   0  0  0  0  0  0  0  0  0  0  0  0
   10.3640   14.8876   19.8142 C   0  0  0  0  0  0  0  0  0  0  0  0
   11.2197   14.4336   18.8187 C   0  0  0  0  0  0  0  0  0  0  0  0
   11.8602   14.0387   17.9533 N   0  0  0  0  0  0  0  0  0  0  0  0
   10.4338   14.3841   21.1686 C   0  0  0  0  0  0  0  0  0  0  0  0
    9.5273   14.5610   21.9727 O   0  0  0  0  0  0  0  0  0  0  0  0
   11.6219   13.7759   21.4515 N   0  0  0  0  0  0  0  0  0  0  0  0
   12.1387   13.7021   22.7734 C   0  0  1  0  0  0  0  0  0  0  0  0
   12.5771   15.0822   23.2009 C   0  0  0  0  0  0  0  0  0  0  0  0
   11.1655   13.1432   23.7886 C   0  0  0  0  0  0  0  0  0  0  0  0
   11.2090   13.5167   24.9684 O   0  0  0  0  0  0  0  0  0  0  0  0
   10.3653   12.0927   23.3627 N   0  0  0  0  0  0  0  0  0  0  0  0
    9.1223   11.9929   23.9685 C   0  0  0  0  0  0  0  0  0  0  0  0
    8.4904   10.8140   24.4382 C   0  0  0  0  0  0  0  0  0  0  0  0
    7.4086   11.2914   25.1588 C   0  0  0  0  0  0  0  0  0  0  0  0
    6.3587   10.7122   25.9750 C   0  0  0  0  0  0  0  0  0  0  0  0
    5.8592    9.6273   25.3691 F   0  0  0  0  0  0  0  0  0  0  0  0
    5.3284   11.5699   26.1922 F   0  0  0  0  0  0  0  0  0  0  0  0
    6.7812   10.3258   27.1996 F   0  0  0  0  0  0  0  0  0  0  0  0
    7.3593   12.6213   24.9408 N   0  0  0  0  0  0  0  0  0  0  0  0
    8.3980   13.0754   24.2724 N   0  0  0  0  0  0  0  0  0  0  0  0
  1  2  1  0
  2  3  1  0
  3  4  1  0
  4  5  2  0
  5  6  1  0
  6  7  3  0
  5  8  1  0
  8  9  2  0
  8 10  1  0
 10 11  1  0
 11 12  1  1
 11 13  1  0
 13 14  2  0
 13 15  1  0
 15 16  1  0
 16 17  1  0
 17 18  2  0
 18 19  1  0
 19 20  1  0
 19 21  1  0
 19 22  1  0
 18 23  1  0
 23 24  1  0
 24 16  2  0
M  END
$$$$

     RDKit          3D

 19 19  0  0  0  0  0  0  0  0999 V2000
   11.0539    8.5794   23.3071 C   0  0  0  0  0  0  0  0  0  0  0  0
    9.7691    9.0965   22.7418 C   0  0  0  0  0  0  0  0  0  0  0  0
    9.1042   10.0875   23.6108 C   0  0  0  0  0  0  0  0  0  0  0  0
    8.1512    9.6948   24.4651 N   0  0  0  0  0  0  0  0  0  0  0  0
    7.6707   10.8414   24.9564 N   0  0  0  0  0  0  0  0  0  0  0  0
    6.5422   10.7690   25.8570 C   0  0  0  0  0  0  0  0  0  0  0  0
    8.2479   11.9624   24.4310 C   0  0  0  0  0  0  0  0  0  0  0  0
    7.7598   13.2130   24.6263 N   0  0  0  0  0  0  0  0  0  0  0  0
    7.5995   13.6827   25.9839 C   0  0  0  0  0  0  0  0  0  0  0  0
    9.2737   11.4948   23.6318 C   0  0  0  0  0  0  0  0  0  0  0  0
   10.2306   12.2054   22.9363 N   0  0  0  0  0  0  0  0  0  0  0  0
   10.7610   13.4219   23.3434 C   0  0  0  0  0  0  0  0  0  0  0  0
   10.4931   14.0014   24.3940 O   0  0  0  0  0  0  0  0  0  0  0  0
   11.7581   13.9146   22.3278 C   0  0  2  0  0  0  0  0  0  0  0  0
   12.6780   12.9392   22.0879 F   0  0  0  0  0  0  0  0  0  0  0  0
   12.5008   15.0976   22.8725 C   0  0  0  0  0  0  0  0  0  0  0  0
   11.7004   16.1436   23.1621 F   0  0  0  0  0  0  0  0  0  0  0  0
   13.1754   14.7517   23.9914 F   0  0  0  0  0  0  0  0  0  0  0  0
   13.3904   15.5594   21.9691 F   0  0  0  0  0  0  0  0  0  0  0  0
  1  2  1  0
  2  3  1  0
  3  4  2  0
  4  5  1  0
  5  6  1  0
  5  7  1  0
  7  8  1  0
  8  9  1  0
  7 10  2  0
 10 11  1  0
 11 12  1  0
 12 13  2  0
 12 14  1  0
 14 15  1  1
 14 16  1  0
 16 17  1  0
 16 18  1  0
 16 19  1  0
 10  3  1  0
M  END
$$$$

     RDKit          3D

 19 19  0  0  0  0  0  0  0  0999 V2000
    9.9468    8.8667   21.8227 C   0  0  0  0  0  0  0  0  0  0  0  0
   10.0516    8.9940   23.3079 C   0  0  0  0  0  0  0  0  0  0  0  0
    9.1660   10.0549   23.8215 C   0  0  0  0  0  0  0  0  0  0  0  0
    8.1252    9.7371   24.5976 N   0  0  0  0  0  0  0  0  0  0  0  0
    7.6186   10.9197   24.9506 N   0  0  0  0  0  0  0  0  0  0  0  0
    6.5286   10.9017   25.8987 C   0  0  0  0  0  0  0  0  0  0  0  0
    8.2221   11.9958   24.3584 C   0  0  0  0  0  0  0  0  0  0  0  0
    7.8049   13.2845   24.4600 N   0  0  0  0  0  0  0  0  0  0  0  0
    6.4793   13.6120   24.9265 C   0  0  0  0  0  0  0  0  0  0  0  0
    9.2981   11.4557   23.6740 C   0  0  0  0  0  0  0  0  0  0  0  0
   10.2831   12.0956   22.9474 N   0  0  0  0  0  0  0  0  0  0  0  0
   10.8251   13.3231   23.2795 C   0  0  0  0  0  0  0  0  0  0  0  0
   10.6909   13.8798   24.3676 O   0  0  0  0  0  0  0  0  0  0  0  0
   11.6199   13.8730   22.1249 C   0  0  1  0  0  0  0  0  0  0  0  0
   10.7932   14.3256   21.1332 F   0  0  0  0  0  0  0  0  0  0  0  0
   12.4959   14.9909   22.6276 C   0  0  0  0  0  0  0  0  0  0  0  0
   11.7972   16.0348   23.1295 F   0  0  0  0  0  0  0  0  0  0  0  0
   13.3315   14.5430   23.5953 F   0  0  0  0  0  0  0  0  0  0  0  0
   13.2578   15.5007   21.6360 F   0  0  0  0  0  0  0  0  0  0  0  0
  1  2  1  0
  2  3  1  0
  3  4  2  0
  4  5  1  0
  5  6  1  0
  5  7  1  0
  7  8  1  0
  8  9  1  0
  7 10  2  0
 10 11  1  0
 11 12  1  0
 12 13  2  0
 12 14  1  0
 14 15  1  6
 14 16  1  0
 16 17  1  0
 16 18  1  0
 16 19  1  0
 10  3  1  0
M  END
$$$$

     RDKit          3D

 26 26  0  0  0  0  0  0  0  0999 V2000
    5.7581    9.1752   30.3192 C   0  0  0  0  0  0  0  0  0  0  0  0
    6.4142   10.1554   29.3831 C   0  0  0  0  0  0  0  0  0  0  0  0
    6.1718    9.7322   28.0460 O   0  0  0  0  0  0  0  0  0  0  0  0
    6.4882   10.7052   27.1561 C   0  0  0  0  0  0  0  0  0  0  0  0
    6.7321   11.8615   27.4732 O   0  0  0  0  0  0  0  0  0  0  0  0
    6.4415   10.1743   25.7618 C   0  0  0  0  0  0  0  0  0  0  0  0
    7.6357   10.4615   24.9849 N   0  0  0  0  0  0  0  0  0  0  0  0
    8.2668    9.4377   24.4047 N   0  0  0  0  0  0  0  0  0  0  0  0
    9.2187   10.0125   23.6635 C   0  0  0  0  0  0  0  0  0  0  0  0
   10.1722    9.1653   22.9240 C   0  0  0  0  0  0  0  0  0  0  0  0
    9.1268   11.4252   23.6915 C   0  0  0  0  0  0  0  0  0  0  0  0
    8.0509   11.6728   24.5118 C   0  0  0  0  0  0  0  0  0  0  0  0
    7.4002   12.7882   24.9290 N   0  0  0  0  0  0  0  0  0  0  0  0
    7.6590   14.1012   24.6162 C   0  0  0  0  0  0  0  0  0  0  0  0
    8.4293   14.4766   23.7414 O   0  0  0  0  0  0  0  0  0  0  0  0
    6.9358   15.0059   25.6126 C   0  0  2  0  0  0  0  0  0  0  0  0
    5.5895   14.4713   25.8427 N   0  0  0  0  0  0  0  0  0  0  0  0
    6.6410   16.4097   25.1876 C   0  0  0  0  0  0  0  0  0  0  0  0
    6.2187   17.3666   26.3327 C   0  0  0  0  0  0  0  0  0  0  0  0
    7.3443   18.0869   27.0916 C   0  0  0  0  0  0  0  0  0  0  0  0
    7.5394   19.4338   26.7070 O   0  0  0  0  0  0  0  0  0  0  0  0
    8.6934   19.9204   27.3817 C   0  0  0  0  0  0  0  0  0  0  0  0
    7.8478   15.0485   26.8214 C   0  0  0  0  0  0  0  0  0  0  0  0
    8.2267   13.8509   27.2702 F   0  0  0  0  0  0  0  0  0  0  0  0
    7.2603   15.6759   27.8696 F   0  0  0  0  0  0  0  0  0  0  0  0
    8.9756   15.7581   26.5440 F   0  0  0  0  0  0  0  0  0  0  0  0
  1  2  1  0
  2  3  1  0
  3  4  1  0
  4  5  2  0
  4  6  1  0
  6  7  1  0
  7  8  1  0
  8  9  2  0
  9 10  1  0
  9 11  1  0
 11 12  2  0
 12 13  1  0
 13 14  1  0
 14 15  2  0
 14 16  1  0
 16 17  1  1
 16 18  1  0
 18 19  1  0
 19 20  1  0
 20 21  1  0
 21 22  1  0
 16 23  1  0
 23 24  1  0
 23 25  1  0
 23 26  1  0
 12  7  1  0
M  END
$$$$

     RDKit          3D

 26 26  0  0  0  0  0  0  0  0999 V2000
    7.9991   13.0794   29.2450 C   0  0  0  0  0  0  0  0  0  0  0  0
    6.9689   12.0243   28.9228 C   0  0  0  0  0  0  0  0  0  0  0  0
    6.9603   11.8026   27.5113 O   0  0  0  0  0  0  0  0  0  0  0  0
    6.4633   10.5674   27.2194 C   0  0  0  0  0  0  0  0  0  0  0  0
    6.0381    9.8101   28.0814 O   0  0  0  0  0  0  0  0  0  0  0  0
    6.4022   10.2836   25.7514 C   0  0  0  0  0  0  0  0  0  0  0  0
    7.6379   10.4842   25.0147 N   0  0  0  0  0  0  0  0  0  0  0  0
    8.2074    9.4368   24.4151 N   0  0  0  0  0  0  0  0  0  0  0  0
    9.2245    9.9582   23.7213 C   0  0  0  0  0  0  0  0  0  0  0  0
   10.1304    9.0701   22.9684 C   0  0  0  0  0  0  0  0  0  0  0  0
    9.2585   11.3686   23.8206 C   0  0  0  0  0  0  0  0  0  0  0  0
    8.1813   11.6705   24.6197 C   0  0  0  0  0  0  0  0  0  0  0  0
    7.6171   12.8271   25.0502 N   0  0  0  0  0  0  0  0  0  0  0  0
    8.2651   14.0229   25.2341 C   0  0  0  0  0  0  0  0  0  0  0  0
    9.4592   14.2540   25.0484 O   0  0  0  0  0  0  0  0  0  0  0  0
    7.2891   15.0881   25.6894 C   0  0  1  0  0  0  0  0  0  0  0  0
    6.5060   14.6089   26.8289 N   0  0  0  0  0  0  0  0  0  0  0  0
    8.1254   16.2190   26.2796 C   0  0  0  0  0  0  0  0  0  0  0  0
    7.3738   17.2948   27.0720 C   0  0  0  0  0  0  0  0  0  0  0  0
    8.2160   18.5304   27.3848 C   0  0  0  0  0  0  0  0  0  0  0  0
    7.7659   19.6131   26.5828 O   0  0  0  0  0  0  0  0  0  0  0  0
    8.6372   20.7252   26.7287 C   0  0  0  0  0  0  0  0  0  0  0  0
    6.4111   15.2847   24.4508 C   0  0  0  0  0  0  0  0  0  0  0  0
    7.0762   15.0945   23.2889 F   0  0  0  0  0  0  0  0  0  0  0  0
    5.8538   16.4970   24.4126 F   0  0  0  0  0  0  0  0  0  0  0  0
    5.3903   14.3946   24.4142 F   0  0  0  0  0  0  0  0  0  0  0  0
  1  2  1  0
  2  3  1  0
  3  4  1  0
  4  5  2  0
  4  6  1  0
  6  7  1  0
  7  8  1  0
  8  9  2  0
  9 10  1  0
  9 11  1  0
 11 12  2  0
 12 13  1  0
 13 14  1  0
 14 15  2  0
 14 16  1  0
 16 17  1  1
 16 18  1  0
 18 19  1  0
 19 20  1  0
 20 21  1  0
 21 22  1  0
 16 23  1  0
 23 24  1  0
 23 25  1  0
 23 26  1  0
 12  7  1  0
M  END
$$$$

     RDKit          3D

 16 17  0  0  0  0  0  0  0  0999 V2000
   10.1580   12.7311   22.9728 N   0  0  0  0  0  0  0  0  0  0  0  0
    9.4619   11.6083   23.4591 C   0  0  0  0  0  0  0  0  0  0  0  0
    9.8349   10.3408   23.0106 C   0  0  0  0  0  0  0  0  0  0  0  0
    9.1886    9.2453   23.5313 C   0  0  0  0  0  0  0  0  0  0  0  0
    8.1954    9.3617   24.4447 N   0  0  0  0  0  0  0  0  0  0  0  0
    7.8636   10.5906   24.8694 C   0  0  0  0  0  0  0  0  0  0  0  0
    8.4488   11.7468   24.4080 C   0  0  0  0  0  0  0  0  0  0  0  0
    8.1336   13.0475   25.0473 C   0  0  0  0  0  0  0  0  0  0  0  0
    6.8228   13.5825   24.8335 N   0  0  0  0  0  0  0  0  0  0  0  0
    5.7834   13.4993   25.7324 C   0  0  0  0  0  0  0  0  0  0  0  0
    4.9093   14.3709   25.7886 O   0  0  0  0  0  0  0  0  0  0  0  0
    5.7731   12.2770   26.6671 C   0  0  1  0  0  0  0  0  0  0  0  0
    6.2505   12.4546   28.1187 C   0  0  0  0  0  0  0  0  0  0  0  0
    4.7823   12.6664   28.5060 C   0  0  2  0  0  0  0  0  0  0  0  0
    4.1739   12.0989   30.0261 Cl  0  0  0  0  0  0  0  0  0  0  0  0
    4.4008   11.8873   27.2467 C   0  0  0  0  0  0  0  0  0  0  0  0
  1  2  1  0
  2  3  2  0
  3  4  1  0
  4  5  2  0
  5  6  1  0
  6  7  2  0
  7  8  1  0
  8  9  1  0
  9 10  1  0
 10 11  2  0
 12 10  1  6
 12 13  1  0
 13 14  1  0
 14 15  1  1
 14 16  1  0
  7  2  1  0
 16 12  1  0
M  END
$$$$

     RDKit          3D

 18 19  0  0  0  0  0  0  0  0999 V2000
    7.9965    8.7878   24.5035 N   0  0  0  0  0  0  0  0  0  0  0  0
    8.3384   10.1213   24.3880 C   0  0  0  0  0  0  0  0  0  0  0  0
    7.5079   11.0646   24.9893 C   0  0  0  0  0  0  0  0  0  0  0  0
    7.8027   12.3933   24.7959 C   0  0  0  0  0  0  0  0  0  0  0  0
    7.0008   13.4372   25.2692 N   0  0  0  0  0  0  0  0  0  0  0  0
    5.8879   13.4762   26.0907 C   0  0  0  0  0  0  0  0  0  0  0  0
    5.2462   14.5306   26.2002 O   0  0  0  0  0  0  0  0  0  0  0  0
    5.5086   12.2259   26.9067 C   0  0  1  0  0  0  0  0  0  0  0  0
    6.4345   11.8030   28.0551 C   0  0  0  0  0  0  0  0  0  0  0  0
    5.4410   12.3741   29.0647 C   0  0  1  0  0  0  0  0  0  0  0  0
    5.8731   13.8794   29.8561 Cl  0  0  0  0  0  0  0  0  0  0  0  0
    4.3837   12.3911   27.9579 C   0  0  0  0  0  0  0  0  0  0  0  0
    8.9333   12.6809   24.0355 C   0  0  0  0  0  0  0  0  0  0  0  0
    9.4252   13.9962   23.7917 C   0  0  0  0  0  0  0  0  0  0  0  0
   10.3122   14.5126   24.4435 O   0  0  0  0  0  0  0  0  0  0  0  0
    8.7474   14.4654   22.7333 O   0  0  0  0  0  0  0  0  0  0  0  0
    9.7123   11.7004   23.4752 C   0  0  0  0  0  0  0  0  0  0  0  0
    9.4105   10.4213   23.6335 N   0  0  0  0  0  0  0  0  0  0  0  0
  1  2  1  0
  2  3  2  0
  3  4  1  0
  4  5  1  0
  5  6  1  0
  6  7  2  0
  8  6  1  1
  8  9  1  0
  9 10  1  0
 10 11  1  6
 10 12  1  0
  4 13  2  0
 13 14  1  0
 14 15  2  0
 14 16  1  0
 13 17  1  0
 17 18  2  0
 18  2  1  0
 12  8  1  0
M  END
$$$$

     RDKit          3D

 25 26  0  0  0  0  0  0  0  0999 V2000
    2.2066    4.6426   29.1257 C   0  0  0  0  0  0  0  0  0  0  0  0
    2.1031    5.9908   28.4623 C   0  0  0  0  0  0  0  0  0  0  0  0
    0.6599    6.3979   28.5518 C   0  0  0  0  0  0  0  0  0  0  0  0
    2.5119    5.8454   27.0181 C   0  0  0  0  0  0  0  0  0  0  0  0
    2.9231    6.9538   29.2771 C   0  0  0  0  0  0  0  0  0  0  0  0
    3.5320    8.1286   28.6473 C   0  0  0  0  0  0  0  0  0  0  0  0
    4.9157    8.3626   28.5138 C   0  0  0  0  0  0  0  0  0  0  0  0
    5.0051    9.5567   27.8441 C   0  0  0  0  0  0  0  0  0  0  0  0
    6.0946   10.0817   27.2008 N   0  0  0  0  0  0  0  0  0  0  0  0
    6.1250   11.2291   26.4313 C   0  0  0  0  0  0  0  0  0  0  0  0
    5.3252   12.1563   26.4996 O   0  0  0  0  0  0  0  0  0  0  0  0
    7.2323   11.1660   25.4833 C   0  0  0  0  0  0  0  0  0  0  0  0
    7.9327   12.1580   24.8118 C   0  0  0  0  0  0  0  0  0  0  0  0
    8.8703   11.4705   24.0539 N   0  0  0  0  0  0  0  0  0  0  0  0
    9.9383   11.8440   23.2403 C   0  0  0  0  0  0  0  0  0  0  0  0
   10.4024   11.0036   22.4965 O   0  0  0  0  0  0  0  0  0  0  0  0
   10.5111   13.2207   23.3996 C   0  0  0  0  0  0  0  0  0  0  0  0
   10.3650   13.9896   24.6056 C   0  0  0  0  0  0  0  0  0  0  0  0
   10.1250   14.5731   25.5813 N   0  0  0  0  0  0  0  0  0  0  0  0
   11.1984   13.7420   22.4316 N   0  0  0  0  0  0  0  0  0  0  0  0
   11.7480   14.9938   22.7369 O   0  0  0  0  0  0  0  0  0  0  0  0
    8.6480   10.1385   24.1905 N   0  0  0  0  0  0  0  0  0  0  0  0
    7.7149    9.9488   25.0934 N   0  0  0  0  0  0  0  0  0  0  0  0
    3.7362   10.0372   27.7998 N   0  0  0  0  0  0  0  0  0  0  0  0
    2.7984    9.1472   28.1845 N   0  0  0  0  0  0  0  0  0  0  0  0
  1  2  1  0
  2  3  1  0
  2  4  1  0
  2  5  1  0
  5  6  1  0
  6  7  1  0
  7  8  2  0
  8  9  1  0
  9 10  1  0
 10 11  2  0
 10 12  1  0
 12 13  2  0
 13 14  1  0
 14 15  1  0
 15 16  2  0
 15 17  1  0
 17 18  1  0
 18 19  3  0
 17 20  2  0
 20 21  1  0
 14 22  1  0
 22 23  2  0
  8 24  1  0
 24 25  1  0
 25  6  2  0
 23 12  1  0
M  END
$$$$

     RDKit          3D

 25 26  0  0  0  0  0  0  0  0999 V2000
    2.2066    4.6426   29.1257 C   0  0  0  0  0  0  0  0  0  0  0  0
    2.1031    5.9908   28.4623 C   0  0  0  0  0  0  0  0  0  0  0  0
    0.6599    6.3979   28.5518 C   0  0  0  0  0  0  0  0  0  0  0  0
    2.5119    5.8454   27.0181 C   0  0  0  0  0  0  0  0  0  0  0  0
    2.9231    6.9538   29.2771 C   0  0  0  0  0  0  0  0  0  0  0  0
    3.5320    8.1286   28.6473 C   0  0  0  0  0  0  0  0  0  0  0  0
    4.9157    8.3626   28.5138 C   0  0  0  0  0  0  0  0  0  0  0  0
    5.0051    9.5567   27.8441 C   0  0  0  0  0  0  0  0  0  0  0  0
    6.0946   10.0817   27.2008 N   0  0  0  0  0  0  0  0  0  0  0  0
    6.1250   11.2291   26.4313 C   0  0  0  0  0  0  0  0  0  0  0  0
    5.3252   12.1563   26.4996 O   0  0  0  0  0  0  0  0  0  0  0  0
    7.2323   11.1660   25.4833 C   0  0  0  0  0  0  0  0  0  0  0  0
    7.9327   12.1580   24.8118 C   0  0  0  0  0  0  0  0  0  0  0  0
    8.8703   11.4705   24.0539 N   0  0  0  0  0  0  0  0  0  0  0  0
    9.9383   11.8440   23.2403 C   0  0  0  0  0  0  0  0  0  0  0  0
   10.4024   11.0036   22.4965 O   0  0  0  0  0  0  0  0  0  0  0  0
   10.5111   13.2207   23.3996 C   0  0  0  0  0  0  0  0  0  0  0  0
   10.3650   13.9896   24.6056 C   0  0  0  0  0  0  0  0  0  0  0  0
   10.1250   14.5731   25.5813 N   0  0  0  0  0  0  0  0  0  0  0  0
   11.1984   13.7420   22.4316 N   0  0  0  0  0  0  0  0  0  0  0  0
   11.7480   14.9938   22.7369 O   0  0  0  0  0  0  0  0  0  0  0  0
    8.6480   10.1385   24.1905 N   0  0  0  0  0  0  0  0  0  0  0  0
    7.7149    9.9488   25.0934 N   0  0  0  0  0  0  0  0  0  0  0  0
    3.7362   10.0372   27.7998 N   0  0  0  0  0  0  0  0  0  0  0  0
    2.7984    9.1472   28.1845 N   0  0  0  0  0  0  0  0  0  0  0  0
  1  2  1  0
  2  3  1  0
  2  4  1  0
  2  5  1  0
  5  6  1  0
  6  7  1  0
  7  8  2  0
  8  9  1  0
  9 10  1  0
 10 11  2  0
 10 12  1  0
 12 13  2  0
 13 14  1  0
 14 15  1  0
 15 16  2  0
 15 17  1  0
 17 18  1  0
 18 19  3  0
 17 20  2  0
 20 21  1  0
 14 22  1  0
 22 23  2  0
  8 24  1  0
 24 25  1  0
 25  6  2  0
 23 12  1  0
M  END
$$$$

     RDKit          3D

 16 17  0  0  0  0  0  0  0  0999 V2000
   11.5076    8.5918   23.6972 C   0  0  0  0  0  0  0  0  0  0  0  0
   10.5366    9.6618   23.2805 C   0  0  1  0  0  0  0  0  0  0  0  0
   10.2803    9.2743   21.9411 C   0  0  0  0  0  0  0  0  0  0  0  0
   10.0157    8.7779   20.9401 N   0  0  0  0  0  0  0  0  0  0  0  0
    9.2478    9.4334   23.9458 C   0  0  0  0  0  0  0  0  0  0  0  0
    8.7090    8.3579   24.1100 O   0  0  0  0  0  0  0  0  0  0  0  0
    8.5686   10.5468   24.4035 N   0  0  0  0  0  0  0  0  0  0  0  0
    7.5597   10.2869   25.2656 N   0  0  0  0  0  0  0  0  0  0  0  0
    7.0273   11.4559   25.5554 C   0  0  0  0  0  0  0  0  0  0  0  0
    5.8477   11.5280   26.5616 C   0  0  0  0  0  0  0  0  0  0  0  0
    4.9736   12.7216   26.4865 C   0  0  0  0  0  0  0  0  0  0  0  0
    6.0838   10.9260   27.9227 C   0  0  0  0  0  0  0  0  0  0  0  0
    5.1717   10.2341   26.9762 C   0  0  0  0  0  0  0  0  0  0  0  0
    7.6888   12.5093   24.8961 C   0  0  0  0  0  0  0  0  0  0  0  0
    8.6981   11.8973   24.1758 C   0  0  0  0  0  0  0  0  0  0  0  0
    9.6439   12.4072   23.3570 N   0  0  0  0  0  0  0  0  0  0  0  0
  2  1  1  1
  2  3  1  0
  3  4  3  0
  2  5  1  0
  5  6  2  0
  5  7  1  0
  7  8  1  0
  8  9  2  0
  9 10  1  0
 10 11  1  0
 10 12  1  0
 12 13  1  0
  9 14  1  0
 14 15  2  0
 15 16  1  0
 15  7  1  0
 13 10  1  0
M  END
$$$$

     RDKit          3D

 16 17  0  0  0  0  0  0  0  0999 V2000
   11.4430    8.6848   23.5319 C   0  0  0  0  0  0  0  0  0  0  0  0
   10.3637    9.5907   23.0131 C   0  0  1  0  0  0  0  0  0  0  0  0
   10.0174    8.9939   21.7631 C   0  0  0  0  0  0  0  0  0  0  0  0
    9.7714    8.4641   20.7703 N   0  0  0  0  0  0  0  0  0  0  0  0
    9.2007    9.3980   23.8806 C   0  0  0  0  0  0  0  0  0  0  0  0
    8.7438    8.3269   24.2225 O   0  0  0  0  0  0  0  0  0  0  0  0
    8.5544   10.5277   24.3476 N   0  0  0  0  0  0  0  0  0  0  0  0
    7.5785   10.2942   25.2541 N   0  0  0  0  0  0  0  0  0  0  0  0
    7.0447   11.4668   25.5228 C   0  0  0  0  0  0  0  0  0  0  0  0
    5.8732   11.5523   26.5391 C   0  0  0  0  0  0  0  0  0  0  0  0
    5.0084   12.7528   26.4694 C   0  0  0  0  0  0  0  0  0  0  0  0
    6.1097   10.9468   27.8988 C   0  0  0  0  0  0  0  0  0  0  0  0
    5.1865   10.2642   26.9565 C   0  0  0  0  0  0  0  0  0  0  0  0
    7.6923   12.5039   24.8248 C   0  0  0  0  0  0  0  0  0  0  0  0
    8.6830   11.8743   24.0919 C   0  0  0  0  0  0  0  0  0  0  0  0
    9.6222   12.3675   23.2553 N   0  0  0  0  0  0  0  0  0  0  0  0
  2  1  1  1
  2  3  1  0
  3  4  3  0
  2  5  1  0
  5  6  2  0
  5  7  1  0
  7  8  1  0
  8  9  2  0
  9 10  1  0
 10 11  1  0
 10 12  1  0
 12 13  1  0
  9 14  1  0
 14 15  2  0
 15 16  1  0
 15  7  1  0
 13 10  1  0
M  END
$$$$

     RDKit          3D

 16 17  0  0  0  0  0  0  0  0999 V2000
   11.5076    8.5918   23.6972 C   0  0  0  0  0  0  0  0  0  0  0  0
   10.5366    9.6618   23.2805 C   0  0  1  0  0  0  0  0  0  0  0  0
   10.2803    9.2743   21.9411 C   0  0  0  0  0  0  0  0  0  0  0  0
   10.0157    8.7779   20.9401 N   0  0  0  0  0  0  0  0  0  0  0  0
    9.2478    9.4334   23.9458 C   0  0  0  0  0  0  0  0  0  0  0  0
    8.7090    8.3579   24.1100 O   0  0  0  0  0  0  0  0  0  0  0  0
    8.5686   10.5468   24.4035 N   0  0  0  0  0  0  0  0  0  0  0  0
    7.5597   10.2869   25.2656 N   0  0  0  0  0  0  0  0  0  0  0  0
    7.0273   11.4559   25.5554 C   0  0  0  0  0  0  0  0  0  0  0  0
    5.8477   11.5280   26.5616 C   0  0  0  0  0  0  0  0  0  0  0  0
    4.9736   12.7216   26.4865 C   0  0  0  0  0  0  0  0  0  0  0  0
    6.0838   10.9260   27.9227 C   0  0  0  0  0  0  0  0  0  0  0  0
    5.1717   10.2341   26.9762 C   0  0  0  0  0  0  0  0  0  0  0  0
    7.6888   12.5093   24.8961 C   0  0  0  0  0  0  0  0  0  0  0  0
    8.6981   11.8973   24.1758 C   0  0  0  0  0  0  0  0  0  0  0  0
    9.6439   12.4072   23.3570 N   0  0  0  0  0  0  0  0  0  0  0  0
  2  1  1  1
  2  3  1  0
  3  4  3  0
  2  5  1  0
  5  6  2  0
  5  7  1  0
  7  8  1  0
  8  9  2  0
  9 10  1  0
 10 11  1  0
 10 12  1  0
 12 13  1  0
  9 14  1  0
 14 15  2  0
 15 16  1  0
 15  7  1  0
 13 10  1  0
M  END
$$$$

     RDKit          3D

 16 17  0  0  0  0  0  0  0  0999 V2000
   11.4430    8.6848   23.5319 C   0  0  0  0  0  0  0  0  0  0  0  0
   10.3637    9.5907   23.0131 C   0  0  1  0  0  0  0  0  0  0  0  0
   10.0174    8.9939   21.7631 C   0  0  0  0  0  0  0  0  0  0  0  0
    9.7714    8.4641   20.7703 N   0  0  0  0  0  0  0  0  0  0  0  0
    9.2007    9.3980   23.8806 C   0  0  0  0  0  0  0  0  0  0  0  0
    8.7438    8.3269   24.2225 O   0  0  0  0  0  0  0  0  0  0  0  0
    8.5544   10.5277   24.3476 N   0  0  0  0  0  0  0  0  0  0  0  0
    7.5785   10.2942   25.2541 N   0  0  0  0  0  0  0  0  0  0  0  0
    7.0447   11.4668   25.5228 C   0  0  0  0  0  0  0  0  0  0  0  0
    5.8732   11.5523   26.5391 C   0  0  0  0  0  0  0  0  0  0  0  0
    5.0084   12.7528   26.4694 C   0  0  0  0  0  0  0  0  0  0  0  0
    6.1097   10.9468   27.8988 C   0  0  0  0  0  0  0  0  0  0  0  0
    5.1865   10.2642   26.9565 C   0  0  0  0  0  0  0  0  0  0  0  0
    7.6923   12.5039   24.8248 C   0  0  0  0  0  0  0  0  0  0  0  0
    8.6830   11.8743   24.0919 C   0  0  0  0  0  0  0  0  0  0  0  0
    9.6222   12.3675   23.2553 N   0  0  0  0  0  0  0  0  0  0  0  0
  2  1  1  1
  2  3  1  0
  3  4  3  0
  2  5  1  0
  5  6  2  0
  5  7  1  0
  7  8  1  0
  8  9  2  0
  9 10  1  0
 10 11  1  0
 10 12  1  0
 12 13  1  0
  9 14  1  0
 14 15  2  0
 15 16  1  0
 15  7  1  0
 13 10  1  0
M  END
$$$$

     RDKit          3D

 17 18  0  0  0  0  0  0  0  0999 V2000
    3.9671   11.8258   28.9248 C   0  0  0  0  0  0  0  0  0  0  0  0
    5.1409   12.5488   28.3932 C   0  0  1  0  0  0  0  0  0  0  0  0
    6.3909   11.8069   28.0568 C   0  0  0  0  0  0  0  0  0  0  0  0
    5.5188   12.3138   26.9452 C   0  0  2  0  0  0  0  0  0  0  0  0
    5.8758   13.5050   26.1491 C   0  0  0  0  0  0  0  0  0  0  0  0
    5.2063   14.5262   26.2862 O   0  0  0  0  0  0  0  0  0  0  0  0
    6.9756   13.4693   25.3225 N   0  0  0  0  0  0  0  0  0  0  0  0
    7.7914   12.4439   24.8364 C   0  0  0  0  0  0  0  0  0  0  0  0
    7.4868   11.1085   24.9878 C   0  0  0  0  0  0  0  0  0  0  0  0
    8.3156   10.1762   24.3713 C   0  0  0  0  0  0  0  0  0  0  0  0
    8.0052    8.8339   24.5044 N   0  0  0  0  0  0  0  0  0  0  0  0
    9.3676   10.5019   23.6010 N   0  0  0  0  0  0  0  0  0  0  0  0
    9.6712   11.7885   23.4794 C   0  0  0  0  0  0  0  0  0  0  0  0
    8.9359   12.7670   24.1056 C   0  0  0  0  0  0  0  0  0  0  0  0
    9.5440   14.0712   24.0154 C   0  0  0  0  0  0  0  0  0  0  0  0
   10.1633   14.4641   23.0456 O   0  0  0  0  0  0  0  0  0  0  0  0
    9.4303   14.7095   25.2016 O   0  0  0  0  0  0  0  0  0  0  0  0
  2  1  1  1
  2  3  1  0
  3  4  1  0
  4  5  1  6
  5  6  2  0
  5  7  1  0
  7  8  1  0
  8  9  2  0
  9 10  1  0
 10 11  1  0
 10 12  2  0
 12 13  1  0
 13 14  2  0
 14 15  1  0
 15 16  2  0
 15 17  1  0
  4  2  1  0
 14  8  1  0
M  END
$$$$

     RDKit          3D

 17 18  0  0  0  0  0  0  0  0999 V2000
    3.9745   11.8548   28.8588 C   0  0  0  0  0  0  0  0  0  0  0  0
    5.1617   12.5740   28.3517 C   0  0  1  0  0  0  0  0  0  0  0  0
    6.4148   11.8252   28.0448 C   0  0  0  0  0  0  0  0  0  0  0  0
    5.5740   12.3391   26.9123 C   0  0  2  0  0  0  0  0  0  0  0  0
    5.9669   13.5265   26.1246 C   0  0  0  0  0  0  0  0  0  0  0  0
    5.3270   14.5651   26.2736 O   0  0  0  0  0  0  0  0  0  0  0  0
    7.0587   13.4615   25.2847 N   0  0  0  0  0  0  0  0  0  0  0  0
    7.8345   12.4054   24.7963 C   0  0  0  0  0  0  0  0  0  0  0  0
    7.5255   11.0806   24.9952 C   0  0  0  0  0  0  0  0  0  0  0  0
    8.3390   10.1271   24.3878 C   0  0  0  0  0  0  0  0  0  0  0  0
    7.9861    8.7973   24.5130 N   0  0  0  0  0  0  0  0  0  0  0  0
    9.4057   10.4141   23.6196 N   0  0  0  0  0  0  0  0  0  0  0  0
    9.7192   11.6895   23.4534 C   0  0  0  0  0  0  0  0  0  0  0  0
    8.9575   12.6797   24.0200 C   0  0  0  0  0  0  0  0  0  0  0  0
    9.4577   13.9913   23.7692 C   0  0  0  0  0  0  0  0  0  0  0  0
   10.3429   14.5094   24.4222 O   0  0  0  0  0  0  0  0  0  0  0  0
    8.7815   14.4617   22.7099 O   0  0  0  0  0  0  0  0  0  0  0  0
  2  1  1  6
  2  3  1  0
  3  4  1  0
  4  5  1  1
  5  6  2  0
  5  7  1  0
  7  8  1  0
  8  9  2  0
  9 10  1  0
 10 11  1  0
 10 12  2  0
 12 13  1  0
 13 14  2  0
 14 15  1  0
 15 16  2  0
 15 17  1  0
  4  2  1  0
 14  8  1  0
M  END
$$$$

     RDKit          3D

 20 20  0  0  0  0  0  0  0  0999 V2000
    4.9610   10.0924   27.7474 C   0  0  0  0  0  0  0  0  0  0  0  0
    6.0037   10.0223   26.7871 O   0  0  0  0  0  0  0  0  0  0  0  0
    6.2923   11.2242   26.2149 C   0  0  0  0  0  0  0  0  0  0  0  0
    5.7036   12.2623   26.5061 O   0  0  0  0  0  0  0  0  0  0  0  0
    7.3943   11.1473   25.2448 C   0  0  0  0  0  0  0  0  0  0  0  0
    8.0762   12.2391   24.6485 C   0  0  0  0  0  0  0  0  0  0  0  0
    9.0693   11.6876   23.8658 C   0  0  0  0  0  0  0  0  0  0  0  0
   10.1126   12.2453   23.1504 N   0  0  0  0  0  0  0  0  0  0  0  0
   10.6016   13.5205   23.4420 C   0  0  0  0  0  0  0  0  0  0  0  0
   10.1698   14.2207   24.3583 O   0  0  0  0  0  0  0  0  0  0  0  0
   11.7236   13.9521   22.5195 C   0  0  2  0  0  0  0  0  0  0  0  0
   11.2185   14.1717   21.1168 C   0  0  0  0  0  0  0  0  0  0  0  0
   12.6626   12.9001   22.5369 O   0  0  0  0  0  0  0  0  0  0  0  0
   12.4430   15.1638   23.0303 C   0  0  0  0  0  0  0  0  0  0  0  0
   12.9672   14.9107   24.2501 F   0  0  0  0  0  0  0  0  0  0  0  0
   13.4589   15.5001   22.2055 F   0  0  0  0  0  0  0  0  0  0  0  0
   11.6701   16.2625   23.1182 F   0  0  0  0  0  0  0  0  0  0  0  0
    8.8958   10.3374   23.9651 N   0  0  0  0  0  0  0  0  0  0  0  0
    9.6922    9.3039   23.3286 C   0  0  0  0  0  0  0  0  0  0  0  0
    7.9076    9.9817   24.8068 N   0  0  0  0  0  0  0  0  0  0  0  0
  1  2  1  0
  2  3  1  0
  3  4  2  0
  3  5  1  0
  5  6  1  0
  6  7  2  0
  7  8  1  0
  8  9  1  0
  9 10  2  0
  9 11  1  0
 11 12  1  6
 11 13  1  0
 11 14  1  0
 14 15  1  0
 14 16  1  0
 14 17  1  0
  7 18  1  0
 18 19  1  0
 18 20  1  0
 20  5  2  0
M  END
$$$$

     RDKit          3D

 18 18  0  0  0  0  0  0  0  0999 V2000
    6.5036   11.0713   25.8340 C   0  0  0  0  0  0  0  0  0  0  0  0
    7.6286   11.0525   24.9294 N   0  0  0  0  0  0  0  0  0  0  0  0
    8.3012   12.1343   24.4607 C   0  0  0  0  0  0  0  0  0  0  0  0
    9.3098   11.6226   23.6772 C   0  0  0  0  0  0  0  0  0  0  0  0
   10.3174   12.2992   23.0245 N   0  0  0  0  0  0  0  0  0  0  0  0
   10.8361   13.4937   23.4609 C   0  0  0  0  0  0  0  0  0  0  0  0
   10.6350   14.0323   24.5456 O   0  0  0  0  0  0  0  0  0  0  0  0
   11.7077   14.1778   22.4493 C   0  0  0  0  0  0  0  0  0  0  0  0
   11.9502   15.5869   22.5392 C   0  0  0  0  0  0  0  0  0  0  0  0
   12.0544   16.7393   22.6349 N   0  0  0  0  0  0  0  0  0  0  0  0
   12.2124   13.5290   21.4585 N   0  0  0  0  0  0  0  0  0  0  0  0
   12.8337   14.3672   20.5271 O   0  0  0  0  0  0  0  0  0  0  0  0
    9.1447   10.2169   23.7169 C   0  0  0  0  0  0  0  0  0  0  0  0
   10.0972    9.2383   23.1065 C   0  0  0  0  0  0  0  0  0  0  0  0
   10.0260    9.2123   21.7602 F   0  0  0  0  0  0  0  0  0  0  0  0
    9.9196    8.0075   23.5684 F   0  0  0  0  0  0  0  0  0  0  0  0
   11.3516    9.5788   23.4579 F   0  0  0  0  0  0  0  0  0  0  0  0
    8.1025    9.8808   24.5087 N   0  0  0  0  0  0  0  0  0  0  0  0
  1  2  1  0
  2  3  1  0
  3  4  2  0
  4  5  1  0
  5  6  1  0
  6  7  2  0
  6  8  1  0
  8  9  1  0
  9 10  3  0
  8 11  2  0
 11 12  1  0
  4 13  1  0
 13 14  1  0
 14 15  1  0
 14 16  1  0
 14 17  1  0
 13 18  2  0
 18  2  1  0
M  END
$$$$

     RDKit          3D

 18 18  0  0  0  0  0  0  0  0999 V2000
    6.6883   10.9174   25.8086 C   0  0  0  0  0  0  0  0  0  0  0  0
    7.8152   10.9127   24.9051 N   0  0  0  0  0  0  0  0  0  0  0  0
    8.5041   11.9958   24.4770 C   0  0  0  0  0  0  0  0  0  0  0  0
    9.4816   11.5178   23.6293 C   0  0  0  0  0  0  0  0  0  0  0  0
   10.4482   12.2845   22.9843 N   0  0  0  0  0  0  0  0  0  0  0  0
   10.8822   13.5126   23.4647 C   0  0  0  0  0  0  0  0  0  0  0  0
   10.6180   13.9766   24.5758 O   0  0  0  0  0  0  0  0  0  0  0  0
   11.7320   14.3672   22.5612 C   0  0  0  0  0  0  0  0  0  0  0  0
   11.8708   15.7740   22.7392 C   0  0  0  0  0  0  0  0  0  0  0  0
   11.9559   16.9275   22.8327 N   0  0  0  0  0  0  0  0  0  0  0  0
   12.4692   14.0713   21.5587 N   0  0  0  0  0  0  0  0  0  0  0  0
   12.5010   12.7351   21.3675 O   0  0  0  0  0  0  0  0  0  0  0  0
    9.2538   10.1025   23.5718 C   0  0  0  0  0  0  0  0  0  0  0  0
    9.9750    9.0748   22.7327 C   0  0  0  0  0  0  0  0  0  0  0  0
   10.6147    9.6698   21.7099 F   0  0  0  0  0  0  0  0  0  0  0  0
    9.1192    8.2036   22.1637 F   0  0  0  0  0  0  0  0  0  0  0  0
   10.8989    8.3764   23.4191 F   0  0  0  0  0  0  0  0  0  0  0  0
    8.2388    9.7586   24.4011 N   0  0  0  0  0  0  0  0  0  0  0  0
  1  2  1  0
  2  3  1  0
  3  4  2  0
  4  5  1  0
  5  6  1  0
  6  7  2  0
  6  8  1  0
  8  9  1  0
  9 10  3  0
  8 11  2  0
 11 12  1  0
  4 13  1  0
 13 14  1  0
 14 15  1  0
 14 16  1  0
 14 17  1  0
 13 18  2  0
 18  2  1  0
M  END
$$$$

     RDKit          3D

 23 25  0  0  0  0  0  0  0  0999 V2000
    4.2006    7.9338   25.1864 N   0  0  0  0  0  0  0  0  0  0  0  0
    4.8568    8.7310   25.7363 C   0  0  0  0  0  0  0  0  0  0  0  0
    5.5857    9.6523   26.5298 C   0  0  0  0  0  0  0  0  0  0  0  0
    5.3906    9.3437   27.8059 C   0  0  0  0  0  0  0  0  0  0  0  0
    5.7930    9.6334   29.1367 C   0  0  0  0  0  0  0  0  0  0  0  0
    5.0558    8.9746   30.1141 C   0  0  0  0  0  0  0  0  0  0  0  0
    5.5350    8.9050   31.4122 C   0  0  0  0  0  0  0  0  0  0  0  0
    6.7593    9.4809   31.7319 C   0  0  0  0  0  0  0  0  0  0  0  0
    7.2749    9.3910   33.3691 Cl  0  0  0  0  0  0  0  0  0  0  0  0
    7.4831   10.1660   30.7623 C   0  0  0  0  0  0  0  0  0  0  0  0
    8.9301   11.0119   31.1557 Cl  0  0  0  0  0  0  0  0  0  0  0  0
    6.9947   10.2380   29.4615 C   0  0  0  0  0  0  0  0  0  0  0  0
    6.3635   10.8351   26.0924 C   0  0  0  0  0  0  0  0  0  0  0  0
    6.1463   11.9490   26.5709 O   0  0  0  0  0  0  0  0  0  0  0  0
    7.4091   10.7163   25.1404 N   0  0  0  0  0  0  0  0  0  0  0  0
    7.8643    9.5188   24.6765 N   0  0  0  0  0  0  0  0  0  0  0  0
    8.8990    9.7871   23.8507 C   0  0  0  0  0  0  0  0  0  0  0  0
    9.6565    8.9219   23.1370 N   0  0  0  0  0  0  0  0  0  0  0  0
    9.1074   11.1574   23.7777 C   0  0  0  0  0  0  0  0  0  0  0  0
    8.1667   11.7180   24.5805 C   0  0  0  0  0  0  0  0  0  0  0  0
    8.2289   13.1828   24.6624 C   0  0  0  0  0  0  0  0  0  0  0  0
    9.5395   13.4630   23.8255 C   0  0  0  0  0  0  0  0  0  0  0  0
   10.0006   12.1361   23.1486 C   0  0  0  0  0  0  0  0  0  0  0  0
  1  2  3  0
  2  3  1  0
  3  4  2  0
  4  5  1  0
  5  6  2  0
  6  7  1  0
  7  8  2  0
  8  9  1  0
  8 10  1  0
 10 11  1  0
 10 12  2  0
  3 13  1  0
 13 14  2  0
 13 15  1  0
 15 16  1  0
 16 17  2  0
 17 18  1  0
 17 19  1  0
 19 20  2  0
 20 21  1  0
 21 22  1  0
 22 23  1  0
 12  5  1  0
 20 15  1  0
 23 19  1  0
M  END
$$$$

     RDKit          3D

 22 22  0  0  0  0  0  0  0  0999 V2000
   12.5959   15.0202   22.5636 C   0  0  0  0  0  0  0  0  0  0  0  0
   12.2175   13.5661   22.7239 C   0  0  1  0  0  0  0  0  0  0  0  0
   13.1905   12.8137   23.4929 N   0  0  0  0  0  0  0  0  0  0  0  0
   13.7944   13.1554   24.6749 C   0  0  0  0  0  0  0  0  0  0  0  0
   13.4902   14.0838   25.3921 O   0  0  0  0  0  0  0  0  0  0  0  0
   14.9192   12.2192   25.0682 C   0  0  0  0  0  0  0  0  0  0  0  0
   15.2935   11.8998   26.4068 C   0  0  0  0  0  0  0  0  0  0  0  0
   15.6094   11.4490   27.4294 N   0  0  0  0  0  0  0  0  0  0  0  0
   15.5775   11.5909   24.1403 N   0  0  0  0  0  0  0  0  0  0  0  0
   16.5648   10.7508   24.6285 O   0  0  0  0  0  0  0  0  0  0  0  0
   10.9163   13.4434   23.4620 C   0  0  0  0  0  0  0  0  0  0  0  0
   10.5145   14.2995   24.2510 O   0  0  0  0  0  0  0  0  0  0  0  0
   10.2831   12.2100   23.2813 N   0  0  0  0  0  0  0  0  0  0  0  0
    9.0701   12.0358   23.9224 C   0  0  0  0  0  0  0  0  0  0  0  0
    8.4252   10.9271   24.4181 C   0  0  0  0  0  0  0  0  0  0  0  0
    7.3478   11.4756   25.1967 C   0  0  0  0  0  0  0  0  0  0  0  0
    6.3285   10.7343   25.9972 C   0  0  0  0  0  0  0  0  0  0  0  0
    5.9559    9.6290   25.3252 F   0  0  0  0  0  0  0  0  0  0  0  0
    6.7831   10.3175   27.2045 F   0  0  0  0  0  0  0  0  0  0  0  0
    5.2020   11.4532   26.2475 F   0  0  0  0  0  0  0  0  0  0  0  0
    7.2949   12.8139   25.0974 N   0  0  0  0  0  0  0  0  0  0  0  0
    8.3024   13.1034   24.2870 N   0  0  0  0  0  0  0  0  0  0  0  0
  2  1  1  1
  2  3  1  0
  3  4  1  0
  4  5  2  0
  4  6  1  0
  6  7  1  0
  7  8  3  0
  6  9  2  0
  9 10  1  0
  2 11  1  0
 11 12  2  0
 11 13  1  0
 13 14  1  0
 14 15  2  0
 15 16  1  0
 16 17  1  0
 17 18  1  0
 17 19  1  0
 17 20  1  0
 16 21  2  0
 21 22  1  0
 22 14  1  0
M  END
$$$$

     RDKit          3D

 22 22  0  0  0  0  0  0  0  0999 V2000
   13.0503   14.7952   22.9563 C   0  0  0  0  0  0  0  0  0  0  0  0
   12.2476   13.6362   22.4154 C   0  0  2  0  0  0  0  0  0  0  0  0
   11.3550   14.1929   21.4496 N   0  0  0  0  0  0  0  0  0  0  0  0
   11.6459   14.5335   20.1623 C   0  0  0  0  0  0  0  0  0  0  0  0
   12.7381   14.5476   19.6477 O   0  0  0  0  0  0  0  0  0  0  0  0
   10.4287   15.0405   19.4446 C   0  0  0  0  0  0  0  0  0  0  0  0
   10.3188   16.0764   18.4620 C   0  0  0  0  0  0  0  0  0  0  0  0
   10.0198   17.0303   17.8592 N   0  0  0  0  0  0  0  0  0  0  0  0
    9.2077   14.7748   19.7776 N   0  0  0  0  0  0  0  0  0  0  0  0
    9.1158   13.8165   20.7407 O   0  0  0  0  0  0  0  0  0  0  0  0
   11.2843   13.1987   23.5097 C   0  0  0  0  0  0  0  0  0  0  0  0
   11.1945   13.7877   24.5940 O   0  0  0  0  0  0  0  0  0  0  0  0
   10.4695   12.1096   23.1812 N   0  0  0  0  0  0  0  0  0  0  0  0
    9.2752   11.9981   23.8741 C   0  0  0  0  0  0  0  0  0  0  0  0
    8.5253   10.9282   24.3046 C   0  0  0  0  0  0  0  0  0  0  0  0
    7.5057   11.5230   25.1297 C   0  0  0  0  0  0  0  0  0  0  0  0
    6.4349   10.8202   25.9096 C   0  0  0  0  0  0  0  0  0  0  0  0
    6.0600    9.7018   25.2627 F   0  0  0  0  0  0  0  0  0  0  0  0
    5.3202   11.5748   26.0992 F   0  0  0  0  0  0  0  0  0  0  0  0
    6.8350   10.4304   27.1461 F   0  0  0  0  0  0  0  0  0  0  0  0
    7.5903   12.8668   25.1237 N   0  0  0  0  0  0  0  0  0  0  0  0
    8.6224   13.1067   24.3231 N   0  0  0  0  0  0  0  0  0  0  0  0
  2  1  1  1
  2  3  1  0
  3  4  1  0
  4  5  2  0
  4  6  1  0
  6  7  1  0
  7  8  3  0
  6  9  2  0
  9 10  1  0
  2 11  1  0
 11 12  2  0
 11 13  1  0
 13 14  1  0
 14 15  2  0
 15 16  1  0
 16 17  1  0
 17 18  1  0
 17 19  1  0
 17 20  1  0
 16 21  2  0
 21 22  1  0
 22 14  1  0
M  END
$$$$

     RDKit          3D

 22 22  0  0  0  0  0  0  0  0999 V2000
   12.3445   15.4333   24.2228 C   0  0  0  0  0  0  0  0  0  0  0  0
   11.9408   14.2404   23.4408 C   0  0  2  0  0  0  0  0  0  0  0  0
   11.5438   14.6801   22.1518 N   0  0  0  0  0  0  0  0  0  0  0  0
   12.0603   13.8245   21.2377 C   0  0  0  0  0  0  0  0  0  0  0  0
   12.7198   12.8594   21.5627 O   0  0  0  0  0  0  0  0  0  0  0  0
   11.6300   14.0470   19.8805 C   0  0  0  0  0  0  0  0  0  0  0  0
   12.3281   14.6107   18.8193 C   0  0  0  0  0  0  0  0  0  0  0  0
   12.2792   15.1413   17.7955 N   0  0  0  0  0  0  0  0  0  0  0  0
   10.4215   13.7760   19.5265 N   0  0  0  0  0  0  0  0  0  0  0  0
   10.5453   13.4669   18.1496 O   0  0  0  0  0  0  0  0  0  0  0  0
   10.7703   13.5950   24.1093 C   0  0  0  0  0  0  0  0  0  0  0  0
   10.2774   14.1010   25.1254 O   0  0  0  0  0  0  0  0  0  0  0  0
   10.2962   12.4178   23.5304 N   0  0  0  0  0  0  0  0  0  0  0  0
    9.0105   12.0906   23.9112 C   0  0  0  0  0  0  0  0  0  0  0  0
    8.4545   10.9672   24.4755 C   0  0  0  0  0  0  0  0  0  0  0  0
    7.2869   11.4823   25.1403 C   0  0  0  0  0  0  0  0  0  0  0  0
    6.3154   10.7361   25.9940 C   0  0  0  0  0  0  0  0  0  0  0  0
    5.9269    9.6189   25.3542 F   0  0  0  0  0  0  0  0  0  0  0  0
    5.1929   11.4459   26.2890 F   0  0  0  0  0  0  0  0  0  0  0  0
    6.8273   10.3448   27.1864 F   0  0  0  0  0  0  0  0  0  0  0  0
    7.1001   12.7893   24.8805 N   0  0  0  0  0  0  0  0  0  0  0  0
    8.0714   13.0715   24.0252 N   0  0  0  0  0  0  0  0  0  0  0  0
  2  1  1  1
  2  3  1  0
  3  4  1  0
  4  5  2  0
  4  6  1  0
  6  7  1  0
  7  8  3  0
  6  9  2  0
  9 10  1  0
  2 11  1  0
 11 12  2  0
 11 13  1  0
 13 14  1  0
 14 15  2  0
 15 16  1  0
 16 17  1  0
 17 18  1  0
 17 19  1  0
 17 20  1  0
 16 21  2  0
 21 22  1  0
 22 14  1  0
M  END
$$$$

     RDKit          3D

 22 22  0  0  0  0  0  0  0  0999 V2000
   12.0791   14.0558   21.3857 C   0  0  0  0  0  0  0  0  0  0  0  0
   11.9892   14.3758   22.8344 C   0  0  2  0  0  0  0  0  0  0  0  0
   13.1824   14.1387   23.6026 N   0  0  0  0  0  0  0  0  0  0  0  0
   13.4191   12.8872   24.0945 C   0  0  0  0  0  0  0  0  0  0  0  0
   12.6339   11.9735   23.9565 O   0  0  0  0  0  0  0  0  0  0  0  0
   14.7100   12.6368   24.8195 C   0  0  0  0  0  0  0  0  0  0  0  0
   15.4938   11.4219   24.7289 C   0  0  0  0  0  0  0  0  0  0  0  0
   16.2646   10.5608   24.6342 N   0  0  0  0  0  0  0  0  0  0  0  0
   15.2784   13.6173   25.4263 N   0  0  0  0  0  0  0  0  0  0  0  0
   16.5816   13.3147   25.8201 O   0  0  0  0  0  0  0  0  0  0  0  0
   10.7746   13.8964   23.6011 C   0  0  0  0  0  0  0  0  0  0  0  0
   10.4767   14.4631   24.6636 O   0  0  0  0  0  0  0  0  0  0  0  0
   10.1376   12.7311   23.1611 N   0  0  0  0  0  0  0  0  0  0  0  0
    8.9839   12.3828   23.8461 C   0  0  0  0  0  0  0  0  0  0  0  0
    8.4384   11.1939   24.2805 C   0  0  0  0  0  0  0  0  0  0  0  0
    7.3678   11.6091   25.1549 C   0  0  0  0  0  0  0  0  0  0  0  0
    6.4058   10.7595   25.9222 C   0  0  0  0  0  0  0  0  0  0  0  0
    6.1398    9.6381   25.2295 F   0  0  0  0  0  0  0  0  0  0  0  0
    5.2198   11.3810   26.1626 F   0  0  0  0  0  0  0  0  0  0  0  0
    6.8679   10.3695   27.1348 F   0  0  0  0  0  0  0  0  0  0  0  0
    7.2553   12.9479   25.1974 N   0  0  0  0  0  0  0  0  0  0  0  0
    8.1698   13.3574   24.3355 N   0  0  0  0  0  0  0  0  0  0  0  0
  2  1  1  6
  2  3  1  0
  3  4  1  0
  4  5  2  0
  4  6  1  0
  6  7  1  0
  7  8  3  0
  6  9  2  0
  9 10  1  0
  2 11  1  0
 11 12  2  0
 11 13  1  0
 13 14  1  0
 14 15  2  0
 15 16  1  0
 16 17  1  0
 17 18  1  0
 17 19  1  0
 17 20  1  0
 16 21  2  0
 21 22  1  0
 22 14  1  0
M  END
$$$$

     RDKit          3D

 22 22  0  0  0  0  0  0  0  0999 V2000
    5.2321   12.2846   25.9108 C   0  0  0  0  0  0  0  0  0  0  0  0
    6.3205   11.3281   26.3334 C   0  0  0  0  0  0  0  0  0  0  0  0
    5.6644   10.0300   26.7416 C   0  0  0  0  0  0  0  0  0  0  0  0
    6.9270   11.9316   27.5795 C   0  0  0  0  0  0  0  0  0  0  0  0
    7.3635   11.1726   25.2826 C   0  0  0  0  0  0  0  0  0  0  0  0
    8.0929   12.1931   24.6529 C   0  0  0  0  0  0  0  0  0  0  0  0
    9.0642   11.5736   23.8932 C   0  0  0  0  0  0  0  0  0  0  0  0
   10.1229   12.1794   23.2223 N   0  0  0  0  0  0  0  0  0  0  0  0
   10.5612   13.4128   23.7153 C   0  0  0  0  0  0  0  0  0  0  0  0
   10.3019   13.8407   24.8479 O   0  0  0  0  0  0  0  0  0  0  0  0
   11.3553   14.2741   22.7881 C   0  0  1  0  0  0  0  0  0  0  0  0
   11.7688   15.5044   23.5592 C   0  0  0  0  0  0  0  0  0  0  0  0
   11.9525   16.5928   22.6749 O   0  0  0  0  0  0  0  0  0  0  0  0
   12.6561   13.6438   22.5285 C   0  0  0  0  0  0  0  0  0  0  0  0
   13.2082   13.1337   23.6584 F   0  0  0  0  0  0  0  0  0  0  0  0
   12.5423   12.6778   21.6338 F   0  0  0  0  0  0  0  0  0  0  0  0
   13.4928   14.5785   22.0528 F   0  0  0  0  0  0  0  0  0  0  0  0
    8.7806   10.2345   23.9960 N   0  0  0  0  0  0  0  0  0  0  0  0
    9.2578    9.0646   23.3146 C   0  0  0  0  0  0  0  0  0  0  0  0
   10.6906    9.0699   22.9434 C   0  0  0  0  0  0  0  0  0  0  0  0
   10.6542    9.1702   21.5364 O   0  0  0  0  0  0  0  0  0  0  0  0
    7.7896    9.9781   24.8778 N   0  0  0  0  0  0  0  0  0  0  0  0
  1  2  1  0
  2  3  1  0
  2  4  1  0
  2  5  1  0
  5  6  1  0
  6  7  2  0
  7  8  1  0
  8  9  1  0
  9 10  2  0
  9 11  1  0
 11 12  1  1
 12 13  1  0
 11 14  1  0
 14 15  1  0
 14 16  1  0
 14 17  1  0
  7 18  1  0
 18 19  1  0
 19 20  1  0
 20 21  1  0
 18 22  1  0
 22  5  2  0
M  END
$$$$

     RDKit          3D

 24 25  0  0  0  0  0  0  0  0999 V2000
   10.3588   13.9522   24.8160 C   0  0  0  0  0  0  0  0  0  0  0  0
   10.2012   13.5640   23.3600 C   0  0  1  0  0  0  0  0  0  0  0  0
   11.3925   14.0785   22.6962 C   0  0  0  0  0  0  0  0  0  0  0  0
   12.3209   14.6857   22.3648 N   0  0  0  0  0  0  0  0  0  0  0  0
    9.9920   12.0935   23.2455 C   0  0  0  0  0  0  0  0  0  0  0  0
   10.6837   11.2899   22.6559 O   0  0  0  0  0  0  0  0  0  0  0  0
    8.8899   11.6020   23.9485 N   0  0  0  0  0  0  0  0  0  0  0  0
    7.9005   12.2530   24.6617 C   0  0  0  0  0  0  0  0  0  0  0  0
    7.2857   11.2441   25.3775 C   0  0  0  0  0  0  0  0  0  0  0  0
    6.2507   11.3338   26.3887 C   0  0  0  0  0  0  0  0  0  0  0  0
    5.5285   12.3145   26.5388 O   0  0  0  0  0  0  0  0  0  0  0  0
    6.2347   10.1898   27.1499 N   0  0  0  0  0  0  0  0  0  0  0  0
    5.2196    9.8080   27.9765 C   0  0  0  0  0  0  0  0  0  0  0  0
    5.0479    8.5788   28.5578 C   0  0  0  0  0  0  0  0  0  0  0  0
    3.6591    8.5224   28.7579 C   0  0  0  0  0  0  0  0  0  0  0  0
    2.8437    7.3048   28.5853 C   0  0  0  0  0  0  0  0  0  0  0  0
    2.0752    7.3839   27.2758 C   0  0  0  0  0  0  0  0  0  0  0  0
    2.9474    7.8225   26.1184 C   0  0  0  0  0  0  0  0  0  0  0  0
    1.5753    6.0156   26.9356 C   0  0  0  0  0  0  0  0  0  0  0  0
    0.8904    8.3023   27.4794 C   0  0  0  0  0  0  0  0  0  0  0  0
    3.0720    9.7234   28.6509 N   0  0  0  0  0  0  0  0  0  0  0  0
    4.0610   10.4891   28.1709 N   0  0  0  0  0  0  0  0  0  0  0  0
    7.8257   10.0434   25.0092 N   0  0  0  0  0  0  0  0  0  0  0  0
    8.7529   10.2665   24.1020 N   0  0  0  0  0  0  0  0  0  0  0  0
  2  1  1  1
  2  3  1  0
  3  4  3  0
  2  5  1  0
  5  6  2  0
  5  7  1  0
  7  8  1  0
  8  9  2  0
  9 10  1  0
 10 11  2  0
 10 12  1  0
 12 13  1  0
 13 14  2  0
 14 15  1  0
 15 16  1  0
 16 17  1  0
 17 18  1  0
 17 19  1  0
 17 20  1  0
 15 21  2  0
 21 22  1  0
  9 23  1  0
 23 24  2  0
 24  7  1  0
 22 13  1  0
M  END
$$$$

     RDKit          3D

 24 25  0  0  0  0  0  0  0  0999 V2000
   10.3588   13.9522   24.8160 C   0  0  0  0  0  0  0  0  0  0  0  0
   10.2012   13.5640   23.3600 C   0  0  1  0  0  0  0  0  0  0  0  0
   11.3925   14.0785   22.6962 C   0  0  0  0  0  0  0  0  0  0  0  0
   12.3209   14.6857   22.3648 N   0  0  0  0  0  0  0  0  0  0  0  0
    9.9920   12.0935   23.2455 C   0  0  0  0  0  0  0  0  0  0  0  0
   10.6837   11.2899   22.6559 O   0  0  0  0  0  0  0  0  0  0  0  0
    8.8899   11.6020   23.9485 N   0  0  0  0  0  0  0  0  0  0  0  0
    7.9005   12.2530   24.6617 C   0  0  0  0  0  0  0  0  0  0  0  0
    7.2857   11.2441   25.3775 C   0  0  0  0  0  0  0  0  0  0  0  0
    6.2507   11.3338   26.3887 C   0  0  0  0  0  0  0  0  0  0  0  0
    5.5285   12.3145   26.5388 O   0  0  0  0  0  0  0  0  0  0  0  0
    6.2347   10.1898   27.1499 N   0  0  0  0  0  0  0  0  0  0  0  0
    5.2196    9.8080   27.9765 C   0  0  0  0  0  0  0  0  0  0  0  0
    5.0479    8.5788   28.5578 C   0  0  0  0  0  0  0  0  0  0  0  0
    3.6591    8.5224   28.7579 C   0  0  0  0  0  0  0  0  0  0  0  0
    2.8437    7.3048   28.5853 C   0  0  0  0  0  0  0  0  0  0  0  0
    2.0752    7.3839   27.2758 C   0  0  0  0  0  0  0  0  0  0  0  0
    2.9474    7.8225   26.1184 C   0  0  0  0  0  0  0  0  0  0  0  0
    1.5753    6.0156   26.9356 C   0  0  0  0  0  0  0  0  0  0  0  0
    0.8904    8.3023   27.4794 C   0  0  0  0  0  0  0  0  0  0  0  0
    3.0720    9.7234   28.6509 N   0  0  0  0  0  0  0  0  0  0  0  0
    4.0610   10.4891   28.1709 N   0  0  0  0  0  0  0  0  0  0  0  0
    7.8257   10.0434   25.0092 N   0  0  0  0  0  0  0  0  0  0  0  0
    8.7529   10.2665   24.1020 N   0  0  0  0  0  0  0  0  0  0  0  0
  2  1  1  1
  2  3  1  0
  3  4  3  0
  2  5  1  0
  5  6  2  0
  5  7  1  0
  7  8  1  0
  8  9  2  0
  9 10  1  0
 10 11  2  0
 10 12  1  0
 12 13  1  0
 13 14  2  0
 14 15  1  0
 15 16  1  0
 16 17  1  0
 17 18  1  0
 17 19  1  0
 17 20  1  0
 15 21  2  0
 21 22  1  0
  9 23  1  0
 23 24  2  0
 24  7  1  0
 22 13  1  0
M  END
$$$$

     RDKit          3D

 19 20  0  0  0  0  0  0  0  0999 V2000
    9.9970   10.5374   22.7934 C   0  0  0  0  0  0  0  0  0  0  0  0
    9.8602   11.6739   23.7778 C   0  0  0  0  0  0  0  0  0  0  0  0
    8.5489   12.4060   23.6402 C   0  0  0  0  0  0  0  0  0  0  0  0
    7.6423   12.2861   24.8241 C   0  0  0  0  0  0  0  0  0  0  0  0
    7.2924   11.1346   25.4154 C   0  0  0  0  0  0  0  0  0  0  0  0
    7.8188    9.9184   24.9252 C   0  0  0  0  0  0  0  0  0  0  0  0
    8.2533    8.9824   24.4059 N   0  0  0  0  0  0  0  0  0  0  0  0
    6.2292   11.1106   26.4617 C   0  0  0  0  0  0  0  0  0  0  0  0
    5.7568   12.1291   26.9537 O   0  0  0  0  0  0  0  0  0  0  0  0
    5.8302    9.8179   26.6906 N   0  0  0  0  0  0  0  0  0  0  0  0
    4.8538    9.3847   27.5347 C   0  0  0  0  0  0  0  0  0  0  0  0
    4.2044    9.9232   28.6092 C   0  0  0  0  0  0  0  0  0  0  0  0
    3.0869    9.0773   28.7588 C   0  0  0  0  0  0  0  0  0  0  0  0
    1.8711    9.4481   29.6077 C   0  0  0  0  0  0  0  0  0  0  0  0
    0.8386   10.2493   28.9033 C   0  0  0  0  0  0  0  0  0  0  0  0
    1.3945    8.4592   30.6285 C   0  0  0  0  0  0  0  0  0  0  0  0
    2.0877    9.7124   31.0671 C   0  0  0  0  0  0  0  0  0  0  0  0
    3.0435    8.0838   27.8757 N   0  0  0  0  0  0  0  0  0  0  0  0
    4.2610    8.1660   27.3141 N   0  0  0  0  0  0  0  0  0  0  0  0
  1  2  1  0
  2  3  1  0
  3  4  1  0
  4  5  2  0
  5  6  1  0
  6  7  3  0
  5  8  1  0
  8  9  2  0
  8 10  1  0
 10 11  1  0
 11 12  2  0
 12 13  1  0
 13 14  1  0
 14 15  1  0
 14 16  1  0
 16 17  1  0
 13 18  2  0
 18 19  1  0
 19 11  1  0
 17 14  1  0
M  END
$$$$

     RDKit          3D

 19 20  0  0  0  0  0  0  0  0999 V2000
    9.9558   10.5279   22.8315 C   0  0  0  0  0  0  0  0  0  0  0  0
    9.7717   11.6358   23.8409 C   0  0  0  0  0  0  0  0  0  0  0  0
    8.4553   12.3538   23.6803 C   0  0  0  0  0  0  0  0  0  0  0  0
    7.5174   12.2184   24.8383 C   0  0  0  0  0  0  0  0  0  0  0  0
    7.2003   11.0742   25.4632 C   0  0  0  0  0  0  0  0  0  0  0  0
    7.7522    9.8636   25.0022 C   0  0  0  0  0  0  0  0  0  0  0  0
    8.2218    8.9583   24.4601 N   0  0  0  0  0  0  0  0  0  0  0  0
    6.0732   11.0418   26.4279 C   0  0  0  0  0  0  0  0  0  0  0  0
    5.1411   11.8414   26.3664 O   0  0  0  0  0  0  0  0  0  0  0  0
    6.1936   10.0407   27.3741 N   0  0  0  0  0  0  0  0  0  0  0  0
    5.0697    9.4190   27.8605 C   0  0  0  0  0  0  0  0  0  0  0  0
    4.6288    9.1881   29.1385 C   0  0  0  0  0  0  0  0  0  0  0  0
    3.3185    8.6927   28.9363 C   0  0  0  0  0  0  0  0  0  0  0  0
    2.2346    8.6690   30.0284 C   0  0  0  0  0  0  0  0  0  0  0  0
    1.2685    9.7983   29.9782 C   0  0  0  0  0  0  0  0  0  0  0  0
    2.5863    8.1213   31.3795 C   0  0  0  0  0  0  0  0  0  0  0  0
    1.7023    7.3349   30.4615 C   0  0  0  0  0  0  0  0  0  0  0  0
    3.0061    8.5194   27.6496 N   0  0  0  0  0  0  0  0  0  0  0  0
    4.1832    8.7659   27.0519 N   0  0  0  0  0  0  0  0  0  0  0  0
  1  2  1  0
  2  3  1  0
  3  4  1  0
  4  5  2  0
  5  6  1  0
  6  7  3  0
  5  8  1  0
  8  9  2  0
  8 10  1  0
 10 11  1  0
 11 12  2  0
 12 13  1  0
 13 14  1  0
 14 15  1  0
 14 16  1  0
 16 17  1  0
 13 18  2  0
 18 19  1  0
 19 11  1  0
 17 14  1  0
M  END
$$$$

     RDKit          3D

 19 20  0  0  0  0  0  0  0  0999 V2000
    9.9970   10.5374   22.7934 C   0  0  0  0  0  0  0  0  0  0  0  0
    9.8602   11.6739   23.7778 C   0  0  0  0  0  0  0  0  0  0  0  0
    8.5489   12.4060   23.6402 C   0  0  0  0  0  0  0  0  0  0  0  0
    7.6423   12.2861   24.8241 C   0  0  0  0  0  0  0  0  0  0  0  0
    7.2924   11.1346   25.4154 C   0  0  0  0  0  0  0  0  0  0  0  0
    7.8188    9.9184   24.9252 C   0  0  0  0  0  0  0  0  0  0  0  0
    8.2533    8.9824   24.4059 N   0  0  0  0  0  0  0  0  0  0  0  0
    6.2292   11.1106   26.4617 C   0  0  0  0  0  0  0  0  0  0  0  0
    5.7568   12.1291   26.9537 O   0  0  0  0  0  0  0  0  0  0  0  0
    5.8302    9.8179   26.6906 N   0  0  0  0  0  0  0  0  0  0  0  0
    4.8538    9.3847   27.5347 C   0  0  0  0  0  0  0  0  0  0  0  0
    4.2044    9.9232   28.6092 C   0  0  0  0  0  0  0  0  0  0  0  0
    3.0869    9.0773   28.7588 C   0  0  0  0  0  0  0  0  0  0  0  0
    1.8711    9.4481   29.6077 C   0  0  0  0  0  0  0  0  0  0  0  0
    0.8386   10.2493   28.9033 C   0  0  0  0  0  0  0  0  0  0  0  0
    1.3945    8.4592   30.6285 C   0  0  0  0  0  0  0  0  0  0  0  0
    2.0877    9.7124   31.0671 C   0  0  0  0  0  0  0  0  0  0  0  0
    3.0435    8.0838   27.8757 N   0  0  0  0  0  0  0  0  0  0  0  0
    4.2610    8.1660   27.3141 N   0  0  0  0  0  0  0  0  0  0  0  0
  1  2  1  0
  2  3  1  0
  3  4  1  0
  4  5  2  0
  5  6  1  0
  6  7  3  0
  5  8  1  0
  8  9  2  0
  8 10  1  0
 10 11  1  0
 11 12  2  0
 12 13  1  0
 13 14  1  0
 14 15  1  0
 14 16  1  0
 16 17  1  0
 13 18  2  0
 18 19  1  0
 19 11  1  0
 17 14  1  0
M  END
$$$$

     RDKit          3D

 19 20  0  0  0  0  0  0  0  0999 V2000
    9.9558   10.5279   22.8315 C   0  0  0  0  0  0  0  0  0  0  0  0
    9.7717   11.6358   23.8409 C   0  0  0  0  0  0  0  0  0  0  0  0
    8.4553   12.3538   23.6803 C   0  0  0  0  0  0  0  0  0  0  0  0
    7.5174   12.2184   24.8383 C   0  0  0  0  0  0  0  0  0  0  0  0
    7.2003   11.0742   25.4632 C   0  0  0  0  0  0  0  0  0  0  0  0
    7.7522    9.8636   25.0022 C   0  0  0  0  0  0  0  0  0  0  0  0
    8.2218    8.9583   24.4601 N   0  0  0  0  0  0  0  0  0  0  0  0
    6.0732   11.0418   26.4279 C   0  0  0  0  0  0  0  0  0  0  0  0
    5.1411   11.8414   26.3664 O   0  0  0  0  0  0  0  0  0  0  0  0
    6.1936   10.0407   27.3741 N   0  0  0  0  0  0  0  0  0  0  0  0
    5.0697    9.4190   27.8605 C   0  0  0  0  0  0  0  0  0  0  0  0
    4.6288    9.1881   29.1385 C   0  0  0  0  0  0  0  0  0  0  0  0
    3.3185    8.6927   28.9363 C   0  0  0  0  0  0  0  0  0  0  0  0
    2.2346    8.6690   30.0284 C   0  0  0  0  0  0  0  0  0  0  0  0
    1.2685    9.7983   29.9782 C   0  0  0  0  0  0  0  0  0  0  0  0
    2.5863    8.1213   31.3795 C   0  0  0  0  0  0  0  0  0  0  0  0
    1.7023    7.3349   30.4615 C   0  0  0  0  0  0  0  0  0  0  0  0
    3.0061    8.5194   27.6496 N   0  0  0  0  0  0  0  0  0  0  0  0
    4.1832    8.7659   27.0519 N   0  0  0  0  0  0  0  0  0  0  0  0
  1  2  1  0
  2  3  1  0
  3  4  1  0
  4  5  2  0
  5  6  1  0
  6  7  3  0
  5  8  1  0
  8  9  2  0
  8 10  1  0
 10 11  1  0
 11 12  2  0
 12 13  1  0
 13 14  1  0
 14 15  1  0
 14 16  1  0
 16 17  1  0
 13 18  2  0
 18 19  1  0
 19 11  1  0
 17 14  1  0
M  END
$$$$

     RDKit          3D

 18 19  0  0  0  0  0  0  0  0999 V2000
   10.4275   12.1602   22.8771 N   0  0  0  0  0  0  0  0  0  0  0  0
    9.3414   11.7615   23.6685 C   0  0  0  0  0  0  0  0  0  0  0  0
    8.5312   12.7518   24.2142 C   0  0  0  0  0  0  0  0  0  0  0  0
    7.4465   12.3913   24.9985 C   0  0  0  0  0  0  0  0  0  0  0  0
    6.6402   13.4507   25.4027 N   0  0  0  0  0  0  0  0  0  0  0  0
    5.5494   13.4500   26.2418 C   0  0  0  0  0  0  0  0  0  0  0  0
    4.8370   14.4612   26.3251 O   0  0  0  0  0  0  0  0  0  0  0  0
    5.2816   12.2044   27.1068 C   0  0  1  0  0  0  0  0  0  0  0  0
    6.3222   11.8130   28.1663 C   0  0  0  0  0  0  0  0  0  0  0  0
    5.4144   12.3777   29.2553 C   0  0  1  0  0  0  0  0  0  0  0  0
    5.8862   13.9037   29.9833 Cl  0  0  0  0  0  0  0  0  0  0  0  0
    4.2579   12.3589   28.2525 C   0  0  0  0  0  0  0  0  0  0  0  0
    7.1642   11.1080   25.3016 N   0  0  0  0  0  0  0  0  0  0  0  0
    7.9570   10.1571   24.7470 C   0  0  0  0  0  0  0  0  0  0  0  0
    9.0147   10.4318   23.9028 C   0  0  0  0  0  0  0  0  0  0  0  0
    9.6922    9.3282   23.2326 C   0  0  0  0  0  0  0  0  0  0  0  0
   10.8868    9.2303   23.0900 O   0  0  0  0  0  0  0  0  0  0  0  0
    8.7695    8.5361   22.6834 O   0  0  0  0  0  0  0  0  0  0  0  0
  1  2  1  0
  2  3  2  0
  3  4  1  0
  4  5  1  0
  5  6  1  0
  6  7  2  0
  8  6  1  1
  8  9  1  0
  9 10  1  0
 10 11  1  6
 10 12  1  0
  4 13  2  0
 13 14  1  0
 14 15  2  0
 15 16  1  0
 16 17  2  0
 16 18  1  0
 15  2  1  0
 12  8  1  0
M  END
$$$$

     RDKit          3D

 20 20  0  0  0  0  0  0  0  0999 V2000
    5.3243   12.0538   26.3394 C   0  0  0  0  0  0  0  0  0  0  0  0
    6.2101   10.8396   26.2397 C   0  0  0  0  0  0  0  0  0  0  0  0
    7.3246   10.9529   25.2816 C   0  0  0  0  0  0  0  0  0  0  0  0
    7.8318    9.8211   24.7944 N   0  0  0  0  0  0  0  0  0  0  0  0
    8.8441   10.2168   24.0146 N   0  0  0  0  0  0  0  0  0  0  0  0
    9.6346    9.1684   23.3864 C   0  0  0  0  0  0  0  0  0  0  0  0
    9.0190   11.5927   23.9813 C   0  0  0  0  0  0  0  0  0  0  0  0
   10.0363   12.2012   23.2534 N   0  0  0  0  0  0  0  0  0  0  0  0
   10.6964   11.3949   22.2952 C   0  0  0  0  0  0  0  0  0  0  0  0
   10.5900   13.4640   23.5569 C   0  0  0  0  0  0  0  0  0  0  0  0
   10.2000   14.1553   24.4984 O   0  0  0  0  0  0  0  0  0  0  0  0
   11.7373   13.9428   22.6458 C   0  0  2  0  0  0  0  0  0  0  0  0
   11.2523   14.1682   21.2329 C   0  0  0  0  0  0  0  0  0  0  0  0
   12.7388   12.9429   22.6643 O   0  0  0  0  0  0  0  0  0  0  0  0
   12.4258   15.1747   23.1541 C   0  0  0  0  0  0  0  0  0  0  0  0
   13.4536   15.5030   22.3365 F   0  0  0  0  0  0  0  0  0  0  0  0
   11.6445   16.2669   23.2034 F   0  0  0  0  0  0  0  0  0  0  0  0
   12.9346   14.9464   24.3840 F   0  0  0  0  0  0  0  0  0  0  0  0
    7.9988   12.0796   24.7701 C   0  0  0  0  0  0  0  0  0  0  0  0
    7.6690   13.3690   24.9904 N   0  0  0  0  0  0  0  0  0  0  0  0
  1  2  1  0
  2  3  1  0
  3  4  2  0
  4  5  1  0
  5  6  1  0
  5  7  1  0
  7  8  1  0
  8  9  1  0
  8 10  1  0
 10 11  2  0
 10 12  1  0
 12 13  1  6
 12 14  1  0
 12 15  1  0
 15 16  1  0
 15 17  1  0
 15 18  1  0
  7 19  2  0
 19 20  1  0
 19  3  1  0
M  END
$$$$

     RDKit          3D

 20 20  0  0  0  0  0  0  0  0999 V2000
    5.3224   12.0778   26.3210 C   0  0  0  0  0  0  0  0  0  0  0  0
    6.2129   10.8647   26.2585 C   0  0  0  0  0  0  0  0  0  0  0  0
    7.3325   10.9597   25.3047 C   0  0  0  0  0  0  0  0  0  0  0  0
    7.8203    9.8202   24.8147 N   0  0  0  0  0  0  0  0  0  0  0  0
    8.8412   10.2007   24.0392 N   0  0  0  0  0  0  0  0  0  0  0  0
    9.6163    9.1434   23.4070 C   0  0  0  0  0  0  0  0  0  0  0  0
    9.0373   11.5723   24.0083 C   0  0  0  0  0  0  0  0  0  0  0  0
   10.0424   12.1712   23.2579 N   0  0  0  0  0  0  0  0  0  0  0  0
   10.6282   11.3668   22.2561 C   0  0  0  0  0  0  0  0  0  0  0  0
   10.6015   13.4323   23.5376 C   0  0  0  0  0  0  0  0  0  0  0  0
   10.3477   14.0419   24.5793 O   0  0  0  0  0  0  0  0  0  0  0  0
   11.5158   14.0605   22.4607 C   0  0  1  0  0  0  0  0  0  0  0  0
   12.5364   13.1156   21.9247 C   0  0  0  0  0  0  0  0  0  0  0  0
   10.7080   14.4777   21.3711 O   0  0  0  0  0  0  0  0  0  0  0  0
   12.3603   15.1798   23.0199 C   0  0  0  0  0  0  0  0  0  0  0  0
   11.6656   16.2440   23.4499 F   0  0  0  0  0  0  0  0  0  0  0  0
   13.2130   15.6506   22.0772 F   0  0  0  0  0  0  0  0  0  0  0  0
   13.1158   14.7164   24.0460 F   0  0  0  0  0  0  0  0  0  0  0  0
    8.0294   12.0761   24.8012 C   0  0  0  0  0  0  0  0  0  0  0  0
    7.7245   13.3721   25.0200 N   0  0  0  0  0  0  0  0  0  0  0  0
  1  2  1  0
  2  3  1  0
  3  4  2  0
  4  5  1  0
  5  6  1  0
  5  7  1  0
  7  8  1  0
  8  9  1  0
  8 10  1  0
 10 11  2  0
 10 12  1  0
 12 13  1  6
 12 14  1  0
 12 15  1  0
 15 16  1  0
 15 17  1  0
 15 18  1  0
  7 19  2  0
 19 20  1  0
 19  3  1  0
M  END
$$$$

     RDKit          3D

 22 22  0  0  0  0  0  0  0  0999 V2000
   12.6013   14.9857   24.2178 C   0  0  0  0  0  0  0  0  0  0  0  0
   12.0011   13.9203   23.3593 C   0  0  2  0  0  0  0  0  0  0  0  0
   11.4281   14.5505   22.2229 N   0  0  0  0  0  0  0  0  0  0  0  0
   11.7717   13.9119   21.0761 C   0  0  0  0  0  0  0  0  0  0  0  0
   12.6191   13.0446   21.0485 O   0  0  0  0  0  0  0  0  0  0  0  0
   10.9985   14.3585   19.9024 C   0  0  0  0  0  0  0  0  0  0  0  0
   11.5607   14.2678   18.6224 C   0  0  0  0  0  0  0  0  0  0  0  0
   11.8934   14.1696   17.5292 N   0  0  0  0  0  0  0  0  0  0  0  0
    9.7984   14.8511   20.0166 N   0  0  0  0  0  0  0  0  0  0  0  0
    9.3457   15.3719   18.7928 O   0  0  0  0  0  0  0  0  0  0  0  0
   10.8190   13.3162   24.0514 C   0  0  0  0  0  0  0  0  0  0  0  0
   10.3553   13.8191   25.0806 O   0  0  0  0  0  0  0  0  0  0  0  0
   10.3024   12.1884   23.4234 N   0  0  0  0  0  0  0  0  0  0  0  0
    8.9768   11.9261   23.7107 C   0  0  0  0  0  0  0  0  0  0  0  0
    8.4858   10.8676   24.5145 C   0  0  0  0  0  0  0  0  0  0  0  0
    7.2850   11.3620   24.9906 C   0  0  0  0  0  0  0  0  0  0  0  0
    6.3372   10.9705   26.0208 C   0  0  0  0  0  0  0  0  0  0  0  0
    6.9628   10.8680   27.2088 F   0  0  0  0  0  0  0  0  0  0  0  0
    5.3418   11.8755   26.2008 F   0  0  0  0  0  0  0  0  0  0  0  0
    5.7497    9.7817   25.7918 F   0  0  0  0  0  0  0  0  0  0  0  0
    7.0902   12.5519   24.3761 N   0  0  0  0  0  0  0  0  0  0  0  0
    8.0285   12.8408   23.4829 N   0  0  0  0  0  0  0  0  0  0  0  0
  2  1  1  1
  2  3  1  0
  3  4  1  0
  4  5  2  0
  4  6  1  0
  6  7  1  0
  7  8  3  0
  6  9  2  0
  9 10  1  0
  2 11  1  0
 11 12  2  0
 11 13  1  0
 13 14  1  0
 14 15  1  0
 15 16  2  0
 16 17  1  0
 17 18  1  0
 17 19  1  0
 17 20  1  0
 16 21  1  0
 21 22  1  0
 22 14  2  0
M  END
$$$$

     RDKit          3D

 22 22  0  0  0  0  0  0  0  0999 V2000
   11.9867   14.1840   21.3262 C   0  0  0  0  0  0  0  0  0  0  0  0
   11.9255   14.3009   22.8078 C   0  0  2  0  0  0  0  0  0  0  0  0
   13.1288   13.9387   23.5080 N   0  0  0  0  0  0  0  0  0  0  0  0
   13.2558   12.6727   24.0085 C   0  0  0  0  0  0  0  0  0  0  0  0
   12.3903   11.8239   23.9012 O   0  0  0  0  0  0  0  0  0  0  0  0
   14.4554   12.3788   24.8642 C   0  0  0  0  0  0  0  0  0  0  0  0
   15.4953   11.4351   24.6239 C   0  0  0  0  0  0  0  0  0  0  0  0
   16.4454   10.8321   24.3683 N   0  0  0  0  0  0  0  0  0  0  0  0
   14.7541   13.0016   25.9471 N   0  0  0  0  0  0  0  0  0  0  0  0
   13.8336   14.0068   26.1554 O   0  0  0  0  0  0  0  0  0  0  0  0
   10.6840   13.8024   23.5273 C   0  0  0  0  0  0  0  0  0  0  0  0
   10.3786   14.2825   24.6289 O   0  0  0  0  0  0  0  0  0  0  0  0
   10.0737   12.6801   22.9793 N   0  0  0  0  0  0  0  0  0  0  0  0
    8.8526   12.3319   23.5208 C   0  0  0  0  0  0  0  0  0  0  0  0
    8.5324   11.1941   24.3133 C   0  0  0  0  0  0  0  0  0  0  0  0
    7.3248   11.5415   24.8971 C   0  0  0  0  0  0  0  0  0  0  0  0
    6.4386   10.9911   25.9114 C   0  0  0  0  0  0  0  0  0  0  0  0
    7.0924   10.8434   27.0758 F   0  0  0  0  0  0  0  0  0  0  0  0
    5.9428    9.7822   25.5919 F   0  0  0  0  0  0  0  0  0  0  0  0
    5.3779   11.7951   26.1811 F   0  0  0  0  0  0  0  0  0  0  0  0
    6.9933   12.7508   24.3917 N   0  0  0  0  0  0  0  0  0  0  0  0
    7.8226   13.1794   23.4522 N   0  0  0  0  0  0  0  0  0  0  0  0
  2  1  1  6
  2  3  1  0
  3  4  1  0
  4  5  2  0
  4  6  1  0
  6  7  1  0
  7  8  3  0
  6  9  2  0
  9 10  1  0
  2 11  1  0
 11 12  2  0
 11 13  1  0
 13 14  1  0
 14 15  1  0
 15 16  2  0
 16 17  1  0
 17 18  1  0
 17 19  1  0
 17 20  1  0
 16 21  1  0
 21 22  1  0
 22 14  2  0
M  END
$$$$

     RDKit          3D

 22 22  0  0  0  0  0  0  0  0999 V2000
    5.4278   12.2834   25.8782 C   0  0  0  0  0  0  0  0  0  0  0  0
    6.2980   11.0634   26.0765 C   0  0  0  0  0  0  0  0  0  0  0  0
    6.6626   11.0594   27.5329 C   0  0  0  0  0  0  0  0  0  0  0  0
    5.4462    9.8367   25.9313 C   0  0  0  0  0  0  0  0  0  0  0  0
    7.4768   11.0500   25.1565 C   0  0  0  0  0  0  0  0  0  0  0  0
    8.1607   12.1512   24.5877 C   0  0  0  0  0  0  0  0  0  0  0  0
    9.1841   11.6151   23.8377 C   0  0  0  0  0  0  0  0  0  0  0  0
   10.2230   12.2024   23.1460 N   0  0  0  0  0  0  0  0  0  0  0  0
   10.6445   13.5049   23.4170 C   0  0  0  0  0  0  0  0  0  0  0  0
   10.1666   14.2086   24.3071 O   0  0  0  0  0  0  0  0  0  0  0  0
   11.7607   13.9586   22.5017 C   0  0  2  0  0  0  0  0  0  0  0  0
   11.2601   14.1723   21.0971 C   0  0  0  0  0  0  0  0  0  0  0  0
   12.7139   12.9185   22.5276 O   0  0  0  0  0  0  0  0  0  0  0  0
   12.4566   15.1772   23.0230 C   0  0  0  0  0  0  0  0  0  0  0  0
   13.4792   15.5264   22.2133 F   0  0  0  0  0  0  0  0  0  0  0  0
   11.6699   16.2661   23.1054 F   0  0  0  0  0  0  0  0  0  0  0  0
   12.9663   14.9249   24.2498 F   0  0  0  0  0  0  0  0  0  0  0  0
    9.0423   10.2578   23.9483 N   0  0  0  0  0  0  0  0  0  0  0  0
    9.9758    9.2338   23.5305 C   0  0  0  0  0  0  0  0  0  0  0  0
   10.1783    9.2520   22.0538 C   0  0  0  0  0  0  0  0  0  0  0  0
    9.5012    8.1426   21.5266 O   0  0  0  0  0  0  0  0  0  0  0  0
    8.0287    9.8969   24.7604 N   0  0  0  0  0  0  0  0  0  0  0  0
  1  2  1  0
  2  3  1  0
  2  4  1  0
  2  5  1  0
  5  6  1  0
  6  7  2  0
  7  8  1  0
  8  9  1  0
  9 10  2  0
  9 11  1  0
 11 12  1  6
 11 13  1  0
 11 14  1  0
 14 15  1  0
 14 16  1  0
 14 17  1  0
  7 18  1  0
 18 19  1  0
 19 20  1  0
 20 21  1  0
 18 22  1  0
 22  5  2  0
M  END
$$$$

     RDKit          3D

 22 22  0  0  0  0  0  0  0  0999 V2000
    5.4498   12.2889   25.8604 C   0  0  0  0  0  0  0  0  0  0  0  0
    6.3168   11.0676   26.0653 C   0  0  0  0  0  0  0  0  0  0  0  0
    6.6723   11.0666   27.5237 C   0  0  0  0  0  0  0  0  0  0  0  0
    5.4626    9.8425   25.9193 C   0  0  0  0  0  0  0  0  0  0  0  0
    7.5006   11.0500   25.1504 C   0  0  0  0  0  0  0  0  0  0  0  0
    8.1904   12.1486   24.5826 C   0  0  0  0  0  0  0  0  0  0  0  0
    9.2096   11.6086   23.8281 C   0  0  0  0  0  0  0  0  0  0  0  0
   10.2294   12.2004   23.1094 N   0  0  0  0  0  0  0  0  0  0  0  0
   10.6649   13.4934   23.3980 C   0  0  0  0  0  0  0  0  0  0  0  0
   10.3369   14.1088   24.4144 O   0  0  0  0  0  0  0  0  0  0  0  0
   11.5389   14.0912   22.3115 C   0  0  1  0  0  0  0  0  0  0  0  0
   12.4770   13.0720   21.7702 C   0  0  0  0  0  0  0  0  0  0  0  0
   10.7094   14.5332   21.2517 O   0  0  0  0  0  0  0  0  0  0  0  0
   12.4081   15.1858   22.8678 C   0  0  0  0  0  0  0  0  0  0  0  0
   11.7218   16.2521   23.3186 F   0  0  0  0  0  0  0  0  0  0  0  0
   13.1596   14.7029   23.8882 F   0  0  0  0  0  0  0  0  0  0  0  0
   13.2575   15.6580   21.9282 F   0  0  0  0  0  0  0  0  0  0  0  0
    9.0628   10.2525   23.9404 N   0  0  0  0  0  0  0  0  0  0  0  0
    9.9932    9.2271   23.5201 C   0  0  0  0  0  0  0  0  0  0  0  0
   10.1080    9.1761   22.0351 C   0  0  0  0  0  0  0  0  0  0  0  0
    9.4168    8.0377   21.5960 O   0  0  0  0  0  0  0  0  0  0  0  0
    8.0495    9.8949   24.7547 N   0  0  0  0  0  0  0  0  0  0  0  0
  1  2  1  0
  2  3  1  0
  2  4  1  0
  2  5  1  0
  5  6  1  0
  6  7  2  0
  7  8  1  0
  8  9  1  0
  9 10  2  0
  9 11  1  0
 11 12  1  6
 11 13  1  0
 11 14  1  0
 14 15  1  0
 14 16  1  0
 14 17  1  0
  7 18  1  0
 18 19  1  0
 19 20  1  0
 20 21  1  0
 18 22  1  0
 22  5  2  0
M  END
$$$$

     RDKit          3D

 21 21  0  0  0  0  0  0  0  0999 V2000
    4.9097    8.7421   29.0660 C   0  0  0  0  0  0  0  0  0  0  0  0
    4.6449    9.4681   27.7702 C   0  0  2  0  0  0  0  0  0  0  0  0
    3.9692    8.5485   26.8775 N   0  0  0  0  0  0  0  0  0  0  0  0
    5.9196   10.0822   27.2217 C   0  0  0  0  0  0  0  0  0  0  0  0
    6.7302   10.5753   28.0078 O   0  0  0  0  0  0  0  0  0  0  0  0
    6.0346   10.1816   25.8576 N   0  0  0  0  0  0  0  0  0  0  0  0
    7.1970   10.5927   25.2195 C   0  0  0  0  0  0  0  0  0  0  0  0
    7.5811   11.9236   24.9151 C   0  0  0  0  0  0  0  0  0  0  0  0
    8.6729   11.8104   24.0808 C   0  0  0  0  0  0  0  0  0  0  0  0
    9.4908   12.7961   23.3443 C   0  0  0  0  0  0  0  0  0  0  0  0
    9.9846   12.3244   22.1917 F   0  0  0  0  0  0  0  0  0  0  0  0
   10.5071   13.2795   24.0920 F   0  0  0  0  0  0  0  0  0  0  0  0
    8.7209   13.8512   22.9788 F   0  0  0  0  0  0  0  0  0  0  0  0
    8.9228   10.4684   23.9730 N   0  0  0  0  0  0  0  0  0  0  0  0
   10.0374    9.8797   23.4104 C   0  0  0  0  0  0  0  0  0  0  0  0
   11.0134   10.5852   23.2593 O   0  0  0  0  0  0  0  0  0  0  0  0
    9.9068    8.4596   23.1228 C   0  0  2  0  0  0  0  0  0  0  0  0
   11.2852    7.9138   23.3277 C   0  0  0  0  0  0  0  0  0  0  0  0
    9.5961    8.2863   21.7307 C   0  0  0  0  0  0  0  0  0  0  0  0
    9.4853    8.0650   20.5978 N   0  0  0  0  0  0  0  0  0  0  0  0
    7.9796    9.7192   24.5787 N   0  0  0  0  0  0  0  0  0  0  0  0
  2  1  1  1
  2  3  1  0
  2  4  1  0
  4  5  2  0
  4  6  1  0
  6  7  1  0
  7  8  1  0
  8  9  2  0
  9 10  1  0
 10 11  1  0
 10 12  1  0
 10 13  1  0
  9 14  1  0
 14 15  1  0
 15 16  2  0
 15 17  1  0
 17 18  1  6
 17 19  1  0
 19 20  3  0
 14 21  1  0
 21  7  2  0
M  END
$$$$

     RDKit          3D

 21 21  0  0  0  0  0  0  0  0999 V2000
    4.9351    8.2255   28.4716 C   0  0  0  0  0  0  0  0  0  0  0  0
    4.7311    9.3036   27.4298 C   0  0  1  0  0  0  0  0  0  0  0  0
    3.5816   10.0590   27.9184 N   0  0  0  0  0  0  0  0  0  0  0  0
    5.9294   10.2264   27.3842 C   0  0  0  0  0  0  0  0  0  0  0  0
    6.7437   10.2729   28.3063 O   0  0  0  0  0  0  0  0  0  0  0  0
    5.9744   11.0894   26.2965 N   0  0  0  0  0  0  0  0  0  0  0  0
    7.1171   11.1506   25.5133 C   0  0  0  0  0  0  0  0  0  0  0  0
    7.7641   12.2856   24.9745 C   0  0  0  0  0  0  0  0  0  0  0  0
    8.8148   11.8076   24.2028 C   0  0  0  0  0  0  0  0  0  0  0  0
    9.8216   12.5424   23.4176 C   0  0  0  0  0  0  0  0  0  0  0  0
    9.3146   12.9052   22.2232 F   0  0  0  0  0  0  0  0  0  0  0  0
   10.9433   11.8279   23.2075 F   0  0  0  0  0  0  0  0  0  0  0  0
   10.2102   13.6718   24.0519 F   0  0  0  0  0  0  0  0  0  0  0  0
    8.6140   10.4474   24.1592 N   0  0  0  0  0  0  0  0  0  0  0  0
    9.0310    9.4578   23.2923 C   0  0  0  0  0  0  0  0  0  0  0  0
    8.2722    8.5446   23.0393 O   0  0  0  0  0  0  0  0  0  0  0  0
   10.3549    9.5924   22.7578 C   0  0  2  0  0  0  0  0  0  0  0  0
   10.2510    9.1070   21.3743 C   0  0  0  0  0  0  0  0  0  0  0  0
   11.0731    8.5400   23.3422 C   0  0  0  0  0  0  0  0  0  0  0  0
   11.6758    7.6229   23.6424 N   0  0  0  0  0  0  0  0  0  0  0  0
    7.6966   10.0514   25.0684 N   0  0  0  0  0  0  0  0  0  0  0  0
  2  1  1  1
  2  3  1  0
  2  4  1  0
  4  5  2  0
  4  6  1  0
  6  7  1  0
  7  8  1  0
  8  9  2  0
  9 10  1  0
 10 11  1  0
 10 12  1  0
 10 13  1  0
  9 14  1  0
 14 15  1  0
 15 16  2  0
 15 17  1  0
 17 18  1  6
 17 19  1  0
 19 20  3  0
 14 21  1  0
 21  7  2  0
M  END
$$$$

     RDKit          3D

 22 22  0  0  0  0  0  0  0  0999 V2000
    5.3970   12.1680   25.9481 C   0  0  0  0  0  0  0  0  0  0  0  0
    6.3055   10.9641   26.0863 C   0  0  0  0  0  0  0  0  0  0  0  0
    6.6450   10.8901   27.5461 C   0  0  0  0  0  0  0  0  0  0  0  0
    5.4901    9.7319   25.8544 C   0  0  0  0  0  0  0  0  0  0  0  0
    7.4923   11.0633   25.1778 C   0  0  0  0  0  0  0  0  0  0  0  0
    8.1800   12.2488   24.8282 C   0  0  0  0  0  0  0  0  0  0  0  0
    9.1413   11.8719   23.9252 C   0  0  0  0  0  0  0  0  0  0  0  0
   10.1175   12.5782   23.2695 N   0  0  0  0  0  0  0  0  0  0  0  0
   10.5843   13.7665   23.7906 C   0  0  0  0  0  0  0  0  0  0  0  0
   10.3271   14.2054   24.9133 O   0  0  0  0  0  0  0  0  0  0  0  0
   11.4205   14.5323   22.8322 C   0  0  1  0  0  0  0  0  0  0  0  0
   11.9518   15.7521   23.5175 C   0  0  0  0  0  0  0  0  0  0  0  0
   11.9977   16.8129   22.5860 O   0  0  0  0  0  0  0  0  0  0  0  0
   12.6407   13.7727   22.5272 C   0  0  0  0  0  0  0  0  0  0  0  0
   12.3671   12.6698   21.8456 F   0  0  0  0  0  0  0  0  0  0  0  0
   13.4300   14.5639   21.7918 F   0  0  0  0  0  0  0  0  0  0  0  0
   13.3049   13.4176   23.6549 F   0  0  0  0  0  0  0  0  0  0  0  0
    8.9792   10.5351   23.7467 N   0  0  0  0  0  0  0  0  0  0  0  0
    9.6872    9.7820   22.7381 C   0  0  0  0  0  0  0  0  0  0  0  0
    9.8824    8.3716   23.1339 C   0  0  0  0  0  0  0  0  0  0  0  0
   11.2621    8.1303   23.2456 O   0  0  0  0  0  0  0  0  0  0  0  0
    8.0097   10.0055   24.5280 N   0  0  0  0  0  0  0  0  0  0  0  0
  1  2  1  0
  2  3  1  0
  2  4  1  0
  2  5  1  0
  5  6  1  0
  6  7  2  0
  7  8  1  0
  8  9  1  0
  9 10  2  0
  9 11  1  0
 11 12  1  1
 12 13  1  0
 11 14  1  0
 14 15  1  0
 14 16  1  0
 14 17  1  0
  7 18  1  0
 18 19  1  0
 19 20  1  0
 20 21  1  0
 18 22  1  0
 22  5  2  0
M  END
$$$$

     RDKit          3D

 24 24  0  0  0  0  0  0  0  0999 V2000
    9.0450    7.3564   19.8678 C   0  0  0  0  0  0  0  0  0  0  0  0
    8.6785    7.3637   21.3163 C   0  0  0  0  0  0  0  0  0  0  0  0
    9.8821    7.7584   22.0666 C   0  0  0  0  0  0  0  0  0  0  0  0
   10.3267    9.0975   22.2844 C   0  0  0  0  0  0  0  0  0  0  0  0
    9.9888    9.5045   23.4928 C   0  0  0  0  0  0  0  0  0  0  0  0
    8.9532    8.8621   24.1437 C   0  0  0  0  0  0  0  0  0  0  0  0
    7.9048    8.5916   24.5214 N   0  0  0  0  0  0  0  0  0  0  0  0
   10.1521   10.9144   23.6664 C   0  0  0  0  0  0  0  0  0  0  0  0
   11.1303   11.5675   23.3541 O   0  0  0  0  0  0  0  0  0  0  0  0
    9.0357   11.5566   24.2121 N   0  0  0  0  0  0  0  0  0  0  0  0
    8.3474   11.0652   25.2759 N   0  0  0  0  0  0  0  0  0  0  0  0
    7.1435   11.6321   25.2224 C   0  0  0  0  0  0  0  0  0  0  0  0
    5.9883   11.1688   25.8783 N   0  0  0  0  0  0  0  0  0  0  0  0
    5.9693   10.4196   27.0502 C   0  0  0  0  0  0  0  0  0  0  0  0
    6.8908   10.3811   27.8608 O   0  0  0  0  0  0  0  0  0  0  0  0
    4.6273    9.8522   27.4861 C   0  0  2  0  0  0  0  0  0  0  0  0
    4.7181    9.2688   28.8832 C   0  0  0  0  0  0  0  0  0  0  0  0
    4.1926    8.7363   26.6690 N   0  0  0  0  0  0  0  0  0  0  0  0
    7.2350   12.7531   24.3422 C   0  0  0  0  0  0  0  0  0  0  0  0
    8.5026   12.7248   23.7889 C   0  0  0  0  0  0  0  0  0  0  0  0
    9.2756   13.5282   22.8368 C   0  0  0  0  0  0  0  0  0  0  0  0
    8.4669   14.3812   22.1754 F   0  0  0  0  0  0  0  0  0  0  0  0
   10.2346   14.2377   23.4649 F   0  0  0  0  0  0  0  0  0  0  0  0
    9.8535   12.7838   21.8856 F   0  0  0  0  0  0  0  0  0  0  0  0
  1  2  1  0
  2  3  1  0
  3  4  1  0
  4  5  2  0
  5  6  1  0
  6  7  3  0
  5  8  1  0
  8  9  2  0
  8 10  1  0
 10 11  1  0
 11 12  2  0
 12 13  1  0
 13 14  1  0
 14 15  2  0
 14 16  1  0
 16 17  1  1
 16 18  1  0
 12 19  1  0
 19 20  2  0
 20 21  1  0
 21 22  1  0
 21 23  1  0
 21 24  1  0
 20 10  1  0
M  END
$$$$

     RDKit          3D

 19 20  0  0  0  0  0  0  0  0999 V2000
   11.9803    8.7108   23.9966 C   0  0  0  0  0  0  0  0  0  0  0  0
   11.4901    7.6091   23.2002 C   0  0  0  0  0  0  0  0  0  0  0  0
   10.2760    7.9763   22.4492 C   0  0  0  0  0  0  0  0  0  0  0  0
   10.1600    9.3988   22.2701 C   0  0  0  0  0  0  0  0  0  0  0  0
    9.4137    9.9546   23.2019 C   0  0  0  0  0  0  0  0  0  0  0  0
    8.7640    9.2443   24.1969 C   0  0  0  0  0  0  0  0  0  0  0  0
    8.1001    8.9147   25.0700 N   0  0  0  0  0  0  0  0  0  0  0  0
    9.4969   11.3789   23.2663 C   0  0  0  0  0  0  0  0  0  0  0  0
   10.3835   12.0331   22.7447 O   0  0  0  0  0  0  0  0  0  0  0  0
    8.5469   11.9886   24.0850 N   0  0  0  0  0  0  0  0  0  0  0  0
    7.3732   11.3913   24.4201 N   0  0  0  0  0  0  0  0  0  0  0  0
    6.9551   12.0610   25.4863 C   0  0  0  0  0  0  0  0  0  0  0  0
    5.8137   11.5890   26.4330 C   0  0  0  0  0  0  0  0  0  0  0  0
    4.6882   12.5390   26.6007 C   0  0  0  0  0  0  0  0  0  0  0  0
    6.2164   10.8046   27.6547 C   0  0  0  0  0  0  0  0  0  0  0  0
    5.4702   10.1262   26.5664 C   0  0  0  0  0  0  0  0  0  0  0  0
    7.6437   13.2798   25.6090 C   0  0  0  0  0  0  0  0  0  0  0  0
    8.6484   13.2140   24.6722 C   0  0  0  0  0  0  0  0  0  0  0  0
    9.7059   14.0092   24.4192 N   0  0  0  0  0  0  0  0  0  0  0  0
  1  2  1  0
  2  3  1  0
  3  4  1  0
  4  5  2  0
  5  6  1  0
  6  7  3  0
  5  8  1  0
  8  9  2  0
  8 10  1  0
 10 11  1  0
 11 12  2  0
 12 13  1  0
 13 14  1  0
 13 15  1  0
 15 16  1  0
 12 17  1  0
 17 18  2  0
 18 19  1  0
 18 10  1  0
 16 13  1  0
M  END
$$$$

     RDKit          3D

 19 20  0  0  0  0  0  0  0  0999 V2000
   11.9803    8.7108   23.9966 C   0  0  0  0  0  0  0  0  0  0  0  0
   11.4901    7.6091   23.2002 C   0  0  0  0  0  0  0  0  0  0  0  0
   10.2760    7.9763   22.4492 C   0  0  0  0  0  0  0  0  0  0  0  0
   10.1600    9.3988   22.2701 C   0  0  0  0  0  0  0  0  0  0  0  0
    9.4137    9.9546   23.2019 C   0  0  0  0  0  0  0  0  0  0  0  0
    8.7640    9.2443   24.1969 C   0  0  0  0  0  0  0  0  0  0  0  0
    8.1001    8.9147   25.0700 N   0  0  0  0  0  0  0  0  0  0  0  0
    9.4969   11.3789   23.2663 C   0  0  0  0  0  0  0  0  0  0  0  0
   10.3835   12.0331   22.7447 O   0  0  0  0  0  0  0  0  0  0  0  0
    8.5469   11.9886   24.0850 N   0  0  0  0  0  0  0  0  0  0  0  0
    7.3732   11.3913   24.4201 N   0  0  0  0  0  0  0  0  0  0  0  0
    6.9551   12.0610   25.4863 C   0  0  0  0  0  0  0  0  0  0  0  0
    5.8137   11.5890   26.4330 C   0  0  0  0  0  0  0  0  0  0  0  0
    4.6882   12.5390   26.6007 C   0  0  0  0  0  0  0  0  0  0  0  0
    6.2164   10.8046   27.6547 C   0  0  0  0  0  0  0  0  0  0  0  0
    5.4702   10.1262   26.5664 C   0  0  0  0  0  0  0  0  0  0  0  0
    7.6437   13.2798   25.6090 C   0  0  0  0  0  0  0  0  0  0  0  0
    8.6484   13.2140   24.6722 C   0  0  0  0  0  0  0  0  0  0  0  0
    9.7059   14.0092   24.4192 N   0  0  0  0  0  0  0  0  0  0  0  0
  1  2  1  0
  2  3  1  0
  3  4  1  0
  4  5  2  0
  5  6  1  0
  6  7  3  0
  5  8  1  0
  8  9  2  0
  8 10  1  0
 10 11  1  0
 11 12  2  0
 12 13  1  0
 13 14  1  0
 13 15  1  0
 15 16  1  0
 12 17  1  0
 17 18  2  0
 18 19  1  0
 18 10  1  0
 16 13  1  0
M  END
$$$$

     RDKit          3D

 21 21  0  0  0  0  0  0  0  0999 V2000
   10.7104   13.3694   18.7333 C   0  0  0  0  0  0  0  0  0  0  0  0
   10.3560   14.6658   19.3202 C   0  0  2  0  0  0  0  0  0  0  0  0
   11.2515   15.3523   18.4820 C   0  0  0  0  0  0  0  0  0  0  0  0
   11.9633   15.6146   17.6192 N   0  0  0  0  0  0  0  0  0  0  0  0
   10.6017   14.6075   20.7760 C   0  0  0  0  0  0  0  0  0  0  0  0
    9.7385   14.9919   21.5638 O   0  0  0  0  0  0  0  0  0  0  0  0
   11.7458   13.9856   21.1885 N   0  0  0  0  0  0  0  0  0  0  0  0
   12.1198   13.8934   22.5644 C   0  0  1  0  0  0  0  0  0  0  0  0
   12.5101   15.2594   23.0715 C   0  0  0  0  0  0  0  0  0  0  0  0
   11.1307   13.2535   23.5362 C   0  0  0  0  0  0  0  0  0  0  0  0
   11.1357   13.5629   24.7391 O   0  0  0  0  0  0  0  0  0  0  0  0
   10.3662   12.1976   23.0643 N   0  0  0  0  0  0  0  0  0  0  0  0
    9.1109   12.0583   23.6429 C   0  0  0  0  0  0  0  0  0  0  0  0
    8.5638   10.9141   24.2888 C   0  0  0  0  0  0  0  0  0  0  0  0
    7.4228   11.3997   24.9095 C   0  0  0  0  0  0  0  0  0  0  0  0
    6.4561   10.9175   25.8846 C   0  0  0  0  0  0  0  0  0  0  0  0
    7.0439   10.7535   27.0838 F   0  0  0  0  0  0  0  0  0  0  0  0
    5.4329   11.7864   26.0947 F   0  0  0  0  0  0  0  0  0  0  0  0
    5.9044    9.7342   25.5632 F   0  0  0  0  0  0  0  0  0  0  0  0
    7.2944   12.6842   24.5127 N   0  0  0  0  0  0  0  0  0  0  0  0
    8.2757   13.0983   23.7340 N   0  0  0  0  0  0  0  0  0  0  0  0
  2  1  1  6
  2  3  1  0
  3  4  3  0
  2  5  1  0
  5  6  2  0
  5  7  1  0
  7  8  1  0
  8  9  1  1
  8 10  1  0
 10 11  2  0
 10 12  1  0
 12 13  1  0
 13 14  1  0
 14 15  2  0
 15 16  1  0
 16 17  1  0
 16 18  1  0
 16 19  1  0
 15 20  1  0
 20 21  1  0
 21 13  2  0
M  END
$$$$

     RDKit          3D

 21 21  0  0  0  0  0  0  0  0999 V2000
   11.9196   15.3697   21.9294 C   0  0  0  0  0  0  0  0  0  0  0  0
   11.9121   13.9289   22.3737 C   0  0  1  0  0  0  0  0  0  0  0  0
   13.0303   13.7574   23.2934 N   0  0  0  0  0  0  0  0  0  0  0  0
   13.1095   12.5871   23.9799 C   0  0  0  0  0  0  0  0  0  0  0  0
   12.2212   11.7506   23.8541 O   0  0  0  0  0  0  0  0  0  0  0  0
   14.1863   12.3765   24.9861 C   0  0  2  0  0  0  0  0  0  0  0  0
   14.6947   13.6710   25.4671 C   0  0  0  0  0  0  0  0  0  0  0  0
   15.3296   11.5770   24.6396 C   0  0  0  0  0  0  0  0  0  0  0  0
   16.3285   11.1587   24.2394 N   0  0  0  0  0  0  0  0  0  0  0  0
   10.6680   13.7044   23.2306 C   0  0  0  0  0  0  0  0  0  0  0  0
   10.4498   14.3421   24.2691 O   0  0  0  0  0  0  0  0  0  0  0  0
    9.9652   12.5623   22.8529 N   0  0  0  0  0  0  0  0  0  0  0  0
    8.7886   12.3036   23.5212 C   0  0  0  0  0  0  0  0  0  0  0  0
    8.4519   11.1532   24.2873 C   0  0  0  0  0  0  0  0  0  0  0  0
    7.2854   11.5291   24.9323 C   0  0  0  0  0  0  0  0  0  0  0  0
    6.4046   10.9688   25.9445 C   0  0  0  0  0  0  0  0  0  0  0  0
    7.0681   10.8025   27.1011 F   0  0  0  0  0  0  0  0  0  0  0  0
    5.3504   11.7748   26.2330 F   0  0  0  0  0  0  0  0  0  0  0  0
    5.9001    9.7673   25.6127 F   0  0  0  0  0  0  0  0  0  0  0  0
    6.9887   12.7713   24.4899 N   0  0  0  0  0  0  0  0  0  0  0  0
    7.8095   13.2107   23.5505 N   0  0  0  0  0  0  0  0  0  0  0  0
  2  1  1  1
  2  3  1  0
  3  4  1  0
  4  5  2  0
  4  6  1  0
  6  7  1  6
  6  8  1  0
  8  9  3  0
  2 10  1  0
 10 11  2  0
 10 12  1  0
 12 13  1  0
 13 14  1  0
 14 15  2  0
 15 16  1  0
 16 17  1  0
 16 18  1  0
 16 19  1  0
 15 20  1  0
 20 21  1  0
 21 13  2  0
M  END
$$$$

     RDKit          3D

 19 19  0  0  0  0  0  0  0  0999 V2000
    5.3321   12.0483   26.3317 C   0  0  0  0  0  0  0  0  0  0  0  0
    6.2145   10.8311   26.2374 C   0  0  0  0  0  0  0  0  0  0  0  0
    7.3287   10.9372   25.2780 C   0  0  0  0  0  0  0  0  0  0  0  0
    7.8276    9.8026   24.7881 N   0  0  0  0  0  0  0  0  0  0  0  0
    8.8425   10.1926   24.0089 N   0  0  0  0  0  0  0  0  0  0  0  0
    9.6299    9.1430   23.3795 C   0  0  0  0  0  0  0  0  0  0  0  0
    9.0272   11.5658   23.9799 C   0  0  0  0  0  0  0  0  0  0  0  0
   10.0528   12.1643   23.2612 N   0  0  0  0  0  0  0  0  0  0  0  0
   10.7177   11.3763   22.2949 C   0  0  0  0  0  0  0  0  0  0  0  0
   10.6178   13.4174   23.5637 C   0  0  0  0  0  0  0  0  0  0  0  0
   10.2298   14.1417   24.4768 O   0  0  0  0  0  0  0  0  0  0  0  0
   11.8040   13.7845   22.6671 C   0  0  2  0  0  0  0  0  0  0  0  0
   12.7803   12.8279   22.7900 F   0  0  0  0  0  0  0  0  0  0  0  0
   12.4440   15.0794   23.0640 C   0  0  0  0  0  0  0  0  0  0  0  0
   13.4243   15.4032   22.1927 F   0  0  0  0  0  0  0  0  0  0  0  0
   12.9983   14.9491   24.2872 F   0  0  0  0  0  0  0  0  0  0  0  0
   11.6097   16.1316   23.0757 F   0  0  0  0  0  0  0  0  0  0  0  0
    8.0116   12.0598   24.7696 C   0  0  0  0  0  0  0  0  0  0  0  0
    7.6952   13.3515   24.9959 N   0  0  0  0  0  0  0  0  0  0  0  0
  1  2  1  0
  2  3  1  0
  3  4  2  0
  4  5  1  0
  5  6  1  0
  5  7  1  0
  7  8  1  0
  8  9  1  0
  8 10  1  0
 10 11  2  0
 10 12  1  0
 12 13  1  1
 12 14  1  0
 14 15  1  0
 14 16  1  0
 14 17  1  0
  7 18  2  0
 18 19  1  0
 18  3  1  0
M  END
$$$$

     RDKit          3D

 19 19  0  0  0  0  0  0  0  0999 V2000
    5.3459   12.0446   26.3189 C   0  0  0  0  0  0  0  0  0  0  0  0
    6.2271   10.8252   26.2429 C   0  0  0  0  0  0  0  0  0  0  0  0
    7.3436   10.9178   25.2849 C   0  0  0  0  0  0  0  0  0  0  0  0
    7.8345    9.7773   24.7997 N   0  0  0  0  0  0  0  0  0  0  0  0
    8.8497   10.1568   24.0158 N   0  0  0  0  0  0  0  0  0  0  0  0
    9.6197    9.1029   23.3734 C   0  0  0  0  0  0  0  0  0  0  0  0
    9.0438   11.5264   23.9814 C   0  0  0  0  0  0  0  0  0  0  0  0
   10.0521   12.1200   23.2389 N   0  0  0  0  0  0  0  0  0  0  0  0
   10.7198   11.3341   22.2774 C   0  0  0  0  0  0  0  0  0  0  0  0
   10.5737   13.3997   23.4733 C   0  0  0  0  0  0  0  0  0  0  0  0
   10.3051   14.0769   24.4626 O   0  0  0  0  0  0  0  0  0  0  0  0
   11.4903   13.8864   22.3538 C   0  0  1  0  0  0  0  0  0  0  0  0
   10.7590   14.2956   21.2755 F   0  0  0  0  0  0  0  0  0  0  0  0
   12.4160   14.9713   22.8319 C   0  0  0  0  0  0  0  0  0  0  0  0
   13.2379   15.3770   21.8412 F   0  0  0  0  0  0  0  0  0  0  0  0
   13.1951   14.5074   23.8387 F   0  0  0  0  0  0  0  0  0  0  0  0
   11.7749   16.0768   23.2634 F   0  0  0  0  0  0  0  0  0  0  0  0
    8.0355   12.0328   24.7727 C   0  0  0  0  0  0  0  0  0  0  0  0
    7.7305   13.3287   24.9922 N   0  0  0  0  0  0  0  0  0  0  0  0
  1  2  1  0
  2  3  1  0
  3  4  2  0
  4  5  1  0
  5  6  1  0
  5  7  1  0
  7  8  1  0
  8  9  1  0
  8 10  1  0
 10 11  2  0
 10 12  1  0
 12 13  1  6
 12 14  1  0
 14 15  1  0
 14 16  1  0
 14 17  1  0
  7 18  2  0
 18 19  1  0
 18  3  1  0
M  END
$$$$

     RDKit          3D

 17 18  0  0  0  0  0  0  0  0999 V2000
    3.9283   11.8173   29.1344 C   0  0  0  0  0  0  0  0  0  0  0  0
    5.0449   12.5949   28.5607 C   0  0  1  0  0  0  0  0  0  0  0  0
    6.3150   11.9136   28.1715 C   0  0  0  0  0  0  0  0  0  0  0  0
    5.3654   12.3709   27.1013 C   0  0  2  0  0  0  0  0  0  0  0  0
    5.6283   13.5675   26.2778 C   0  0  0  0  0  0  0  0  0  0  0  0
    4.9109   14.5549   26.4255 O   0  0  0  0  0  0  0  0  0  0  0  0
    6.6849   13.5651   25.4048 N   0  0  0  0  0  0  0  0  0  0  0  0
    7.4812   12.5157   24.9635 C   0  0  0  0  0  0  0  0  0  0  0  0
    8.5417   12.8976   24.1568 C   0  0  0  0  0  0  0  0  0  0  0  0
    9.3593   11.9267   23.5897 C   0  0  0  0  0  0  0  0  0  0  0  0
   10.4543   12.3527   22.8253 N   0  0  0  0  0  0  0  0  0  0  0  0
    9.0660   10.5912   23.8241 C   0  0  0  0  0  0  0  0  0  0  0  0
    9.7524    9.4995   23.1354 C   0  0  0  0  0  0  0  0  0  0  0  0
   10.3211    9.5718   22.0715 O   0  0  0  0  0  0  0  0  0  0  0  0
    9.6343    8.3965   23.8594 O   0  0  0  0  0  0  0  0  0  0  0  0
    8.0229   10.2981   24.6853 C   0  0  0  0  0  0  0  0  0  0  0  0
    7.2280   11.2275   25.2642 N   0  0  0  0  0  0  0  0  0  0  0  0
  2  1  1  1
  2  3  1  0
  3  4  1  0
  4  5  1  6
  5  6  2  0
  5  7  1  0
  7  8  1  0
  8  9  2  0
  9 10  1  0
 10 11  1  0
 10 12  2  0
 12 13  1  0
 13 14  2  0
 13 15  1  0
 12 16  1  0
 16 17  2  0
  4  2  1  0
 17  8  1  0
M  END
$$$$

     RDKit          3D

 17 18  0  0  0  0  0  0  0  0999 V2000
    3.9111   11.8431   29.1194 C   0  0  0  0  0  0  0  0  0  0  0  0
    5.0510   12.5888   28.5488 C   0  0  1  0  0  0  0  0  0  0  0  0
    6.3086   11.8728   28.1821 C   0  0  0  0  0  0  0  0  0  0  0  0
    5.3829   12.3410   27.0956 C   0  0  2  0  0  0  0  0  0  0  0  0
    5.6885   13.5201   26.2618 C   0  0  0  0  0  0  0  0  0  0  0  0
    4.9988   14.5299   26.3914 O   0  0  0  0  0  0  0  0  0  0  0  0
    6.7568   13.4775   25.4037 N   0  0  0  0  0  0  0  0  0  0  0  0
    7.5297   12.4005   24.9841 C   0  0  0  0  0  0  0  0  0  0  0  0
    8.6185   12.7458   24.1983 C   0  0  0  0  0  0  0  0  0  0  0  0
    9.4222   11.7461   23.6613 C   0  0  0  0  0  0  0  0  0  0  0  0
   10.5060   12.1275   22.8598 N   0  0  0  0  0  0  0  0  0  0  0  0
    9.0945   10.4216   23.9168 C   0  0  0  0  0  0  0  0  0  0  0  0
    9.6993    9.2963   23.2241 C   0  0  0  0  0  0  0  0  0  0  0  0
    9.0431    8.5602   22.5193 O   0  0  0  0  0  0  0  0  0  0  0  0
   11.0145    9.2381   23.4407 O   0  0  0  0  0  0  0  0  0  0  0  0
    8.0082   10.1579   24.7263 C   0  0  0  0  0  0  0  0  0  0  0  0
    7.2287   11.1207   25.2810 N   0  0  0  0  0  0  0  0  0  0  0  0
  2  1  1  1
  2  3  1  0
  3  4  1  0
  4  5  1  6
  5  6  2  0
  5  7  1  0
  7  8  1  0
  8  9  2  0
  9 10  1  0
 10 11  1  0
 10 12  2  0
 12 13  1  0
 13 14  2  0
 13 15  1  0
 12 16  1  0
 16 17  2  0
  4  2  1  0
 17  8  1  0
M  END
$$$$

     RDKit          3D

 16 17  0  0  0  0  0  0  0  0999 V2000
   13.0125   13.4264   23.0718 C   0  0  0  0  0  0  0  0  0  0  0  0
   11.9842   14.0209   22.1402 C   0  0  2  0  0  0  0  0  0  0  0  0
   12.1106   15.4722   22.1913 C   0  0  0  0  0  0  0  0  0  0  0  0
   12.1339   16.6251   22.3194 N   0  0  0  0  0  0  0  0  0  0  0  0
   10.7332   13.6488   22.8578 C   0  0  0  0  0  0  0  0  0  0  0  0
   10.3258   14.2596   23.8535 O   0  0  0  0  0  0  0  0  0  0  0  0
   10.1944   12.4480   22.4160 N   0  0  0  0  0  0  0  0  0  0  0  0
    9.5069   11.7208   23.3453 C   0  0  0  0  0  0  0  0  0  0  0  0
    8.5601   10.7312   23.3484 C   0  0  0  0  0  0  0  0  0  0  0  0
    8.0752   10.7415   24.6744 C   0  0  0  0  0  0  0  0  0  0  0  0
    6.7493   11.3537   25.1997 C   0  0  0  0  0  0  0  0  0  0  0  0
    5.8191   10.4285   25.8815 C   0  0  0  0  0  0  0  0  0  0  0  0
    6.3649   12.6934   24.6143 C   0  0  0  0  0  0  0  0  0  0  0  0
    6.9053   12.6644   25.9813 C   0  0  0  0  0  0  0  0  0  0  0  0
    9.0468   11.1569   25.4475 N   0  0  0  0  0  0  0  0  0  0  0  0
    9.7064   11.9689   24.6485 N   0  0  0  0  0  0  0  0  0  0  0  0
  2  1  1  1
  2  3  1  0
  3  4  3  0
  2  5  1  0
  5  6  2  0
  5  7  1  0
  7  8  1  0
  8  9  2  0
  9 10  1  0
 10 11  1  0
 11 12  1  0
 11 13  1  0
 13 14  1  0
 10 15  2  0
 15 16  1  0
 16  8  1  0
 14 11  1  0
M  END
$$$$

     RDKit          3D

 16 17  0  0  0  0  0  0  0  0999 V2000
   13.0125   13.4264   23.0718 C   0  0  0  0  0  0  0  0  0  0  0  0
   11.9842   14.0209   22.1402 C   0  0  2  0  0  0  0  0  0  0  0  0
   12.1106   15.4722   22.1913 C   0  0  0  0  0  0  0  0  0  0  0  0
   12.1339   16.6251   22.3194 N   0  0  0  0  0  0  0  0  0  0  0  0
   10.7332   13.6488   22.8578 C   0  0  0  0  0  0  0  0  0  0  0  0
   10.3258   14.2596   23.8535 O   0  0  0  0  0  0  0  0  0  0  0  0
   10.1944   12.4480   22.4160 N   0  0  0  0  0  0  0  0  0  0  0  0
    9.5069   11.7208   23.3453 C   0  0  0  0  0  0  0  0  0  0  0  0
    8.5601   10.7312   23.3484 C   0  0  0  0  0  0  0  0  0  0  0  0
    8.0752   10.7415   24.6744 C   0  0  0  0  0  0  0  0  0  0  0  0
    6.7493   11.3537   25.1997 C   0  0  0  0  0  0  0  0  0  0  0  0
    5.8191   10.4285   25.8815 C   0  0  0  0  0  0  0  0  0  0  0  0
    6.3649   12.6934   24.6143 C   0  0  0  0  0  0  0  0  0  0  0  0
    6.9053   12.6644   25.9813 C   0  0  0  0  0  0  0  0  0  0  0  0
    9.0468   11.1569   25.4475 N   0  0  0  0  0  0  0  0  0  0  0  0
    9.7064   11.9689   24.6485 N   0  0  0  0  0  0  0  0  0  0  0  0
  2  1  1  1
  2  3  1  0
  3  4  3  0
  2  5  1  0
  5  6  2  0
  5  7  1  0
  7  8  1  0
  8  9  2  0
  9 10  1  0
 10 11  1  0
 11 12  1  0
 11 13  1  0
 13 14  1  0
 10 15  2  0
 15 16  1  0
 16  8  1  0
 14 11  1  0
M  END
$$$$

     RDKit          3D

 21 21  0  0  0  0  0  0  0  0999 V2000
    9.2031   15.7895   19.3390 C   0  0  0  0  0  0  0  0  0  0  0  0
   10.0990   14.6156   19.5975 C   0  0  1  0  0  0  0  0  0  0  0  0
   11.2222   14.6726   18.7212 C   0  0  0  0  0  0  0  0  0  0  0  0
   12.0858   14.7894   17.9732 N   0  0  0  0  0  0  0  0  0  0  0  0
   10.4179   14.4642   21.0330 C   0  0  0  0  0  0  0  0  0  0  0  0
    9.5939   14.7221   21.9111 O   0  0  0  0  0  0  0  0  0  0  0  0
   11.6225   13.8767   21.2941 N   0  0  0  0  0  0  0  0  0  0  0  0
   12.1904   13.7773   22.5996 C   0  0  1  0  0  0  0  0  0  0  0  0
   12.6319   15.1517   23.0406 C   0  0  0  0  0  0  0  0  0  0  0  0
   11.2326   13.2039   23.6295 C   0  0  0  0  0  0  0  0  0  0  0  0
   11.2233   13.6187   24.7969 O   0  0  0  0  0  0  0  0  0  0  0  0
   10.4379   12.1320   23.2216 N   0  0  0  0  0  0  0  0  0  0  0  0
    9.2322   12.0027   23.8893 C   0  0  0  0  0  0  0  0  0  0  0  0
    8.4960   10.9264   24.3236 C   0  0  0  0  0  0  0  0  0  0  0  0
    7.4740   11.5164   25.1483 C   0  0  0  0  0  0  0  0  0  0  0  0
    6.4113   10.8072   25.9295 C   0  0  0  0  0  0  0  0  0  0  0  0
    6.0362    9.6909   25.2787 F   0  0  0  0  0  0  0  0  0  0  0  0
    5.2945   11.5563   26.1304 F   0  0  0  0  0  0  0  0  0  0  0  0
    6.8197   10.4121   27.1621 F   0  0  0  0  0  0  0  0  0  0  0  0
    7.5485   12.8607   25.1447 N   0  0  0  0  0  0  0  0  0  0  0  0
    8.5585   13.1096   24.3157 N   0  0  0  0  0  0  0  0  0  0  0  0
  2  1  1  1
  2  3  1  0
  3  4  3  0
  2  5  1  0
  5  6  2  0
  5  7  1  0
  7  8  1  0
  8  9  1  1
  8 10  1  0
 10 11  2  0
 10 12  1  0
 12 13  1  0
 13 14  2  0
 14 15  1  0
 15 16  1  0
 16 17  1  0
 16 18  1  0
 16 19  1  0
 15 20  2  0
 20 21  1  0
 21 13  1  0
M  END
$$$$

     RDKit          3D

 21 21  0  0  0  0  0  0  0  0999 V2000
   14.6193   13.7126   25.6368 C   0  0  0  0  0  0  0  0  0  0  0  0
   14.2019   12.4314   25.0276 C   0  0  2  0  0  0  0  0  0  0  0  0
   15.3684   11.6715   24.6805 C   0  0  0  0  0  0  0  0  0  0  0  0
   16.3587   11.2741   24.2401 N   0  0  0  0  0  0  0  0  0  0  0  0
   13.1411   12.6147   23.9994 C   0  0  0  0  0  0  0  0  0  0  0  0
   12.2533   11.7763   23.8824 O   0  0  0  0  0  0  0  0  0  0  0  0
   13.0778   13.7561   23.2650 N   0  0  0  0  0  0  0  0  0  0  0  0
   11.9816   13.8777   22.3050 C   0  0  2  0  0  0  0  0  0  0  0  0
   12.0179   15.2900   21.7755 C   0  0  0  0  0  0  0  0  0  0  0  0
   10.7338   13.7514   23.1731 C   0  0  0  0  0  0  0  0  0  0  0  0
   10.5450   14.4818   24.1547 O   0  0  0  0  0  0  0  0  0  0  0  0
    9.9658   12.6089   22.9082 N   0  0  0  0  0  0  0  0  0  0  0  0
    8.9255   12.3323   23.7785 C   0  0  0  0  0  0  0  0  0  0  0  0
    8.3338   11.1668   24.2108 C   0  0  0  0  0  0  0  0  0  0  0  0
    7.3822   11.6036   25.1989 C   0  0  0  0  0  0  0  0  0  0  0  0
    6.3883   10.7781   25.9504 C   0  0  0  0  0  0  0  0  0  0  0  0
    6.1038    9.6629   25.2536 F   0  0  0  0  0  0  0  0  0  0  0  0
    5.2159   11.4302   26.1722 F   0  0  0  0  0  0  0  0  0  0  0  0
    6.8248   10.3735   27.1688 F   0  0  0  0  0  0  0  0  0  0  0  0
    7.4192   12.9371   25.3652 N   0  0  0  0  0  0  0  0  0  0  0  0
    8.3064   13.3311   24.4632 N   0  0  0  0  0  0  0  0  0  0  0  0
  2  1  1  6
  2  3  1  0
  3  4  3  0
  2  5  1  0
  5  6  2  0
  5  7  1  0
  7  8  1  0
  8  9  1  1
  8 10  1  0
 10 11  2  0
 10 12  1  0
 12 13  1  0
 13 14  2  0
 14 15  1  0
 15 16  1  0
 16 17  1  0
 16 18  1  0
 16 19  1  0
 15 20  2  0
 20 21  1  0
 21 13  1  0
M  END
$$$$

     RDKit          3D

 22 22  0  0  0  0  0  0  0  0999 V2000
    3.6587    8.0024   26.5921 C   0  0  0  0  0  0  0  0  0  0  0  0
    4.7420    8.7985   27.2874 C   0  0  0  0  0  0  0  0  0  0  0  0
    4.4668   10.1905   27.1379 O   0  0  0  0  0  0  0  0  0  0  0  0
    5.4048   10.9569   26.5127 C   0  0  0  0  0  0  0  0  0  0  0  0
    5.1237   12.1056   26.1895 O   0  0  0  0  0  0  0  0  0  0  0  0
    6.7578   10.3375   26.4178 C   0  0  0  0  0  0  0  0  0  0  0  0
    7.5206   10.5661   25.2097 N   0  0  0  0  0  0  0  0  0  0  0  0
    8.0896    9.4895   24.6476 N   0  0  0  0  0  0  0  0  0  0  0  0
    9.0060    9.9902   23.8124 C   0  0  0  0  0  0  0  0  0  0  0  0
    9.9012    9.0961   23.0535 C   0  0  0  0  0  0  0  0  0  0  0  0
    8.9726   11.3966   23.7932 C   0  0  0  0  0  0  0  0  0  0  0  0
    7.9985   11.7379   24.7055 C   0  0  0  0  0  0  0  0  0  0  0  0
    7.5148   12.9461   25.1236 N   0  0  0  0  0  0  0  0  0  0  0  0
    7.9249   14.1374   24.5788 C   0  0  0  0  0  0  0  0  0  0  0  0
    8.7842   14.2784   23.7138 O   0  0  0  0  0  0  0  0  0  0  0  0
    7.1984   15.3155   25.1351 C   0  0  1  0  0  0  0  0  0  0  0  0
    5.7235   15.2074   24.9097 C   0  0  0  0  0  0  0  0  0  0  0  0
    5.4656   15.5639   23.5627 O   0  0  0  0  0  0  0  0  0  0  0  0
    7.5270   15.4939   26.5749 C   0  0  0  0  0  0  0  0  0  0  0  0
    7.1939   14.4331   27.3374 F   0  0  0  0  0  0  0  0  0  0  0  0
    8.8498   15.7253   26.7346 F   0  0  0  0  0  0  0  0  0  0  0  0
    6.8821   16.5686   27.0837 F   0  0  0  0  0  0  0  0  0  0  0  0
  1  2  1  0
  2  3  1  0
  3  4  1  0
  4  5  2  0
  4  6  1  0
  6  7  1  0
  7  8  1  0
  8  9  2  0
  9 10  1  0
  9 11  1  0
 11 12  2  0
 12 13  1  0
 13 14  1  0
 14 15  2  0
 14 16  1  0
 16 17  1  1
 17 18  1  0
 16 19  1  0
 19 20  1  0
 19 21  1  0
 19 22  1  0
 12  7  1  0
M  END
$$$$

     RDKit          3D

 22 22  0  0  0  0  0  0  0  0999 V2000
    3.7524   13.6456   24.6798 C   0  0  0  0  0  0  0  0  0  0  0  0
    4.1843   12.6989   25.7839 C   0  0  0  0  0  0  0  0  0  0  0  0
    5.4557   12.1057   25.5150 O   0  0  0  0  0  0  0  0  0  0  0  0
    5.5983   10.8892   26.1032 C   0  0  0  0  0  0  0  0  0  0  0  0
    4.6940   10.3146   26.7008 O   0  0  0  0  0  0  0  0  0  0  0  0
    6.9861   10.3615   26.1293 C   0  0  0  0  0  0  0  0  0  0  0  0
    7.8199   10.5086   24.9626 N   0  0  0  0  0  0  0  0  0  0  0  0
    8.3073    9.4022   24.3983 N   0  0  0  0  0  0  0  0  0  0  0  0
    9.2508    9.8428   23.5596 C   0  0  0  0  0  0  0  0  0  0  0  0
   10.0785    8.8902   22.8003 C   0  0  0  0  0  0  0  0  0  0  0  0
    9.3122   11.2505   23.5376 C   0  0  0  0  0  0  0  0  0  0  0  0
    8.3948   11.6432   24.4841 C   0  0  0  0  0  0  0  0  0  0  0  0
    7.9436   12.8622   24.8945 N   0  0  0  0  0  0  0  0  0  0  0  0
    8.0573   13.9413   24.0609 C   0  0  0  0  0  0  0  0  0  0  0  0
    9.0513   14.2782   23.4343 O   0  0  0  0  0  0  0  0  0  0  0  0
    6.7242   14.5696   23.9326 C   0  0  2  0  0  0  0  0  0  0  0  0
    6.6304   15.3021   22.6448 C   0  0  0  0  0  0  0  0  0  0  0  0
    5.2882   15.6388   22.4191 O   0  0  0  0  0  0  0  0  0  0  0  0
    6.2935   15.3230   25.1342 C   0  0  0  0  0  0  0  0  0  0  0  0
    5.1079   15.9278   24.9456 F   0  0  0  0  0  0  0  0  0  0  0  0
    7.1776   16.2514   25.5086 F   0  0  0  0  0  0  0  0  0  0  0  0
    6.1529   14.5148   26.2086 F   0  0  0  0  0  0  0  0  0  0  0  0
  1  2  1  0
  2  3  1  0
  3  4  1  0
  4  5  2  0
  4  6  1  0
  6  7  1  0
  7  8  1  0
  8  9  2  0
  9 10  1  0
  9 11  1  0
 11 12  2  0
 12 13  1  0
 13 14  1  0
 14 15  2  0
 14 16  1  0
 16 17  1  6
 17 18  1  0
 16 19  1  0
 19 20  1  0
 19 21  1  0
 19 22  1  0
 12  7  1  0
M  END
$$$$

     RDKit          3D

 22 22  0  0  0  0  0  0  0  0999 V2000
    5.8250    9.2996   30.3307 C   0  0  0  0  0  0  0  0  0  0  0  0
    6.3997   10.2957   29.3587 C   0  0  0  0  0  0  0  0  0  0  0  0
    6.1129    9.8545   28.0363 O   0  0  0  0  0  0  0  0  0  0  0  0
    6.5769   10.7292   27.1080 C   0  0  0  0  0  0  0  0  0  0  0  0
    7.0117   11.8436   27.3754 O   0  0  0  0  0  0  0  0  0  0  0  0
    6.4611   10.1356   25.7399 C   0  0  0  0  0  0  0  0  0  0  0  0
    7.6437   10.3572   24.9253 N   0  0  0  0  0  0  0  0  0  0  0  0
    8.2734    9.3067   24.3982 N   0  0  0  0  0  0  0  0  0  0  0  0
    9.2524    9.8408   23.6603 C   0  0  0  0  0  0  0  0  0  0  0  0
   10.2091    8.9648   22.9613 C   0  0  0  0  0  0  0  0  0  0  0  0
    9.1916   11.2516   23.6511 C   0  0  0  0  0  0  0  0  0  0  0  0
    8.0801   11.5371   24.4080 C   0  0  0  0  0  0  0  0  0  0  0  0
    7.4133   12.6752   24.7233 N   0  0  0  0  0  0  0  0  0  0  0  0
    7.9345   13.9295   24.6005 C   0  0  0  0  0  0  0  0  0  0  0  0
    8.9793   14.2422   24.0361 O   0  0  0  0  0  0  0  0  0  0  0  0
    7.0391   14.9119   25.3097 C   0  0  2  0  0  0  0  0  0  0  0  0
    7.9372   15.9870   25.8130 C   0  0  0  0  0  0  0  0  0  0  0  0
    6.4760   14.4329   26.5177 O   0  0  0  0  0  0  0  0  0  0  0  0
    5.9294   15.2885   24.3541 C   0  0  0  0  0  0  0  0  0  0  0  0
    5.2270   16.3466   24.8103 F   0  0  0  0  0  0  0  0  0  0  0  0
    5.0393   14.2760   24.2301 F   0  0  0  0  0  0  0  0  0  0  0  0
    6.3511   15.5765   23.1093 F   0  0  0  0  0  0  0  0  0  0  0  0
  1  2  1  0
  2  3  1  0
  3  4  1  0
  4  5  2  0
  4  6  1  0
  6  7  1  0
  7  8  1  0
  8  9  2  0
  9 10  1  0
  9 11  1  0
 11 12  2  0
 12 13  1  0
 13 14  1  0
 14 15  2  0
 14 16  1  0
 16 17  1  1
 16 18  1  0
 16 19  1  0
 19 20  1  0
 19 21  1  0
 19 22  1  0
 12  7  1  0
M  END
$$$$

     RDKit          3D

 21 21  0  0  0  0  0  0  0  0999 V2000
    5.4457   12.3039   25.8556 C   0  0  0  0  0  0  0  0  0  0  0  0
    6.2921   11.0720   26.0763 C   0  0  0  0  0  0  0  0  0  0  0  0
    6.6661   11.0902   27.5304 C   0  0  0  0  0  0  0  0  0  0  0  0
    5.4173    9.8567   25.9637 C   0  0  0  0  0  0  0  0  0  0  0  0
    7.4670   11.0118   25.1535 C   0  0  0  0  0  0  0  0  0  0  0  0
    8.1886   12.0794   24.5624 C   0  0  0  0  0  0  0  0  0  0  0  0
    9.2059   11.4926   23.8402 C   0  0  0  0  0  0  0  0  0  0  0  0
   10.2928   12.0100   23.1643 N   0  0  0  0  0  0  0  0  0  0  0  0
   10.7088   13.3222   23.3561 C   0  0  0  0  0  0  0  0  0  0  0  0
   10.1480   14.1214   24.1045 O   0  0  0  0  0  0  0  0  0  0  0  0
   11.9808   13.6021   22.5905 C   0  0  2  0  0  0  0  0  0  0  0  0
   12.9717   12.7735   23.0595 F   0  0  0  0  0  0  0  0  0  0  0  0
   12.4277   15.0092   22.8771 C   0  0  0  0  0  0  0  0  0  0  0  0
   13.5032   15.3527   22.1448 F   0  0  0  0  0  0  0  0  0  0  0  0
   11.4955   15.9431   22.6141 F   0  0  0  0  0  0  0  0  0  0  0  0
   12.7673   15.1164   24.1807 F   0  0  0  0  0  0  0  0  0  0  0  0
    9.0214   10.1488   23.9916 N   0  0  0  0  0  0  0  0  0  0  0  0
    9.9384    9.0990   23.6139 C   0  0  0  0  0  0  0  0  0  0  0  0
    9.5992    8.5847   22.2621 C   0  0  0  0  0  0  0  0  0  0  0  0
   10.5404    9.1609   21.3969 O   0  0  0  0  0  0  0  0  0  0  0  0
    7.9805    9.8330   24.7814 N   0  0  0  0  0  0  0  0  0  0  0  0
  1  2  1  0
  2  3  1  0
  2  4  1  0
  2  5  1  0
  5  6  1  0
  6  7  2  0
  7  8  1  0
  8  9  1  0
  9 10  2  0
  9 11  1  0
 11 12  1  1
 11 13  1  0
 13 14  1  0
 13 15  1  0
 13 16  1  0
  7 17  1  0
 17 18  1  0
 18 19  1  0
 19 20  1  0
 17 21  1  0
 21  5  2  0
M  END
$$$$

     RDKit          3D

 21 21  0  0  0  0  0  0  0  0999 V2000
    5.4813    8.9300   30.1227 C   0  0  0  0  0  0  0  0  0  0  0  0
    6.2923    9.9259   29.3329 C   0  0  0  0  0  0  0  0  0  0  0  0
    6.0107    9.7159   27.9545 O   0  0  0  0  0  0  0  0  0  0  0  0
    6.4888   10.7136   27.1743 C   0  0  0  0  0  0  0  0  0  0  0  0
    6.9386   11.7757   27.5901 O   0  0  0  0  0  0  0  0  0  0  0  0
    6.3452   10.3391   25.7384 C   0  0  0  0  0  0  0  0  0  0  0  0
    7.5473   10.6178   24.9789 N   0  0  0  0  0  0  0  0  0  0  0  0
    8.1882    9.5940   24.4142 N   0  0  0  0  0  0  0  0  0  0  0  0
    9.1951   10.1606   23.7448 C   0  0  0  0  0  0  0  0  0  0  0  0
   10.1411    9.3038   23.0029 C   0  0  0  0  0  0  0  0  0  0  0  0
    9.1684   11.5740   23.8602 C   0  0  0  0  0  0  0  0  0  0  0  0
    8.0478   11.8347   24.6208 C   0  0  0  0  0  0  0  0  0  0  0  0
    7.4223   12.9825   25.0321 N   0  0  0  0  0  0  0  0  0  0  0  0
    8.0865   14.0847   25.5027 C   0  0  0  0  0  0  0  0  0  0  0  0
    9.2988   14.2137   25.6700 O   0  0  0  0  0  0  0  0  0  0  0  0
    7.1986   15.2517   25.7659 C   0  0  1  0  0  0  0  0  0  0  0  0
    7.0840   16.0106   24.6507 F   0  0  0  0  0  0  0  0  0  0  0  0
    5.8408   14.9744   26.3127 C   0  0  0  0  0  0  0  0  0  0  0  0
    5.0427   14.3608   25.4147 F   0  0  0  0  0  0  0  0  0  0  0  0
    5.2410   16.1437   26.6522 F   0  0  0  0  0  0  0  0  0  0  0  0
    5.8726   14.2264   27.4304 F   0  0  0  0  0  0  0  0  0  0  0  0
  1  2  1  0
  2  3  1  0
  3  4  1  0
  4  5  2  0
  4  6  1  0
  6  7  1  0
  7  8  1  0
  8  9  2  0
  9 10  1  0
  9 11  1  0
 11 12  2  0
 12 13  1  0
 13 14  1  0
 14 15  2  0
 14 16  1  0
 16 17  1  6
 16 18  1  0
 18 19  1  0
 18 20  1  0
 18 21  1  0
 12  7  1  0
M  END
$$$$

     RDKit          3D

 22 22  0  0  0  0  0  0  0  0999 V2000
   12.6311   15.0433   22.4951 C   0  0  0  0  0  0  0  0  0  0  0  0
   11.5974   14.0349   22.0560 C   0  0  2  0  0  0  0  0  0  0  0  0
   10.8447   14.6517   20.9718 N   0  0  0  0  0  0  0  0  0  0  0  0
   10.6715   13.7598   23.2317 C   0  0  0  0  0  0  0  0  0  0  0  0
   11.0304   13.8092   24.4155 O   0  0  0  0  0  0  0  0  0  0  0  0
    9.3763   13.3765   22.8743 N   0  0  0  0  0  0  0  0  0  0  0  0
    8.6700   12.6155   23.7813 C   0  0  0  0  0  0  0  0  0  0  0  0
    7.4680   12.8150   24.4259 C   0  0  0  0  0  0  0  0  0  0  0  0
    7.3251   11.7087   25.3057 C   0  0  0  0  0  0  0  0  0  0  0  0
    6.2036   11.4049   26.2611 C   0  0  0  0  0  0  0  0  0  0  0  0
    5.5125   12.5253   26.6076 F   0  0  0  0  0  0  0  0  0  0  0  0
    6.6223   10.8488   27.4310 F   0  0  0  0  0  0  0  0  0  0  0  0
    5.2960   10.5433   25.7547 F   0  0  0  0  0  0  0  0  0  0  0  0
    8.4036   10.9168   25.2077 N   0  0  0  0  0  0  0  0  0  0  0  0
    9.0637   11.3432   24.1061 N   0  0  0  0  0  0  0  0  0  0  0  0
   10.0542   10.5840   23.4854 C   0  0  0  0  0  0  0  0  0  0  0  0
   11.0950   11.1005   23.1711 O   0  0  0  0  0  0  0  0  0  0  0  0
    9.6172    9.2508   23.0745 C   0  0  0  0  0  0  0  0  0  0  0  0
    8.6472    8.6499   23.8666 C   0  0  0  0  0  0  0  0  0  0  0  0
    7.7016    8.5494   24.5128 N   0  0  0  0  0  0  0  0  0  0  0  0
    9.8917    8.7783   21.9122 N   0  0  0  0  0  0  0  0  0  0  0  0
    9.1014    7.6700   21.6173 O   0  0  0  0  0  0  0  0  0  0  0  0
  2  1  1  1
  2  3  1  0
  2  4  1  0
  4  5  2  0
  4  6  1  0
  6  7  1  0
  7  8  2  0
  8  9  1  0
  9 10  1  0
 10 11  1  0
 10 12  1  0
 10 13  1  0
  9 14  2  0
 14 15  1  0
 15 16  1  0
 16 17  2  0
 16 18  1  0
 18 19  1  0
 19 20  3  0
 18 21  2  0
 21 22  1  0
 15  7  1  0
M  END
$$$$

     RDKit          3D

 22 22  0  0  0  0  0  0  0  0999 V2000
   11.9549   15.4642   22.3905 C   0  0  0  0  0  0  0  0  0  0  0  0
   11.7028   13.9987   22.6278 C   0  0  1  0  0  0  0  0  0  0  0  0
   12.9085   13.4462   23.2331 N   0  0  0  0  0  0  0  0  0  0  0  0
   10.6152   13.8433   23.6720 C   0  0  0  0  0  0  0  0  0  0  0  0
   10.8107   13.8614   24.8930 O   0  0  0  0  0  0  0  0  0  0  0  0
    9.3354   13.6320   23.1502 N   0  0  0  0  0  0  0  0  0  0  0  0
    8.5510   12.7590   23.8950 C   0  0  0  0  0  0  0  0  0  0  0  0
    7.3742   12.9206   24.5846 C   0  0  0  0  0  0  0  0  0  0  0  0
    7.2433   11.7447   25.3727 C   0  0  0  0  0  0  0  0  0  0  0  0
    6.2103   11.4688   26.4270 C   0  0  0  0  0  0  0  0  0  0  0  0
    5.1356   12.2956   26.3305 F   0  0  0  0  0  0  0  0  0  0  0  0
    5.7248   10.2029   26.4091 F   0  0  0  0  0  0  0  0  0  0  0  0
    6.7255   11.6664   27.6740 F   0  0  0  0  0  0  0  0  0  0  0  0
    8.2832   10.9197   25.1585 N   0  0  0  0  0  0  0  0  0  0  0  0
    8.9469   11.4591   24.1100 N   0  0  0  0  0  0  0  0  0  0  0  0
    9.9045   10.7951   23.3613 C   0  0  0  0  0  0  0  0  0  0  0  0
   10.5309   11.3759   22.5085 O   0  0  0  0  0  0  0  0  0  0  0  0
   10.0792    9.3801   23.5556 C   0  0  0  0  0  0  0  0  0  0  0  0
    8.9269    8.6463   23.8314 C   0  0  0  0  0  0  0  0  0  0  0  0
    7.8528    8.4641   24.2074 N   0  0  0  0  0  0  0  0  0  0  0  0
   11.2605    8.8973   23.4635 N   0  0  0  0  0  0  0  0  0  0  0  0
   11.2432    7.5432   23.4830 O   0  0  0  0  0  0  0  0  0  0  0  0
  2  1  1  1
  2  3  1  0
  2  4  1  0
  4  5  2  0
  4  6  1  0
  6  7  1  0
  7  8  2  0
  8  9  1  0
  9 10  1  0
 10 11  1  0
 10 12  1  0
 10 13  1  0
  9 14  2  0
 14 15  1  0
 15 16  1  0
 16 17  2  0
 16 18  1  0
 18 19  1  0
 19 20  3  0
 18 21  2  0
 21 22  1  0
 15  7  1  0
M  END
$$$$

     RDKit          3D

 22 22  0  0  0  0  0  0  0  0999 V2000
   12.4857   14.7643   22.5891 C   0  0  0  0  0  0  0  0  0  0  0  0
   11.5636   13.6751   22.0854 C   0  0  2  0  0  0  0  0  0  0  0  0
   10.6340   14.3445   21.1785 N   0  0  0  0  0  0  0  0  0  0  0  0
   10.7239   13.1555   23.2425 C   0  0  0  0  0  0  0  0  0  0  0  0
   10.6321   13.7306   24.3324 O   0  0  0  0  0  0  0  0  0  0  0  0
   10.0557   11.9619   22.9442 N   0  0  0  0  0  0  0  0  0  0  0  0
    8.9667   11.5833   23.7113 C   0  0  0  0  0  0  0  0  0  0  0  0
    8.1200   12.3744   24.4762 C   0  0  0  0  0  0  0  0  0  0  0  0
    7.3243   11.4959   25.2328 C   0  0  0  0  0  0  0  0  0  0  0  0
    6.3749   11.7586   26.3517 C   0  0  0  0  0  0  0  0  0  0  0  0
    5.4996   12.7603   26.0911 F   0  0  0  0  0  0  0  0  0  0  0  0
    5.6309   10.6753   26.7090 F   0  0  0  0  0  0  0  0  0  0  0  0
    7.0609   12.1233   27.4717 F   0  0  0  0  0  0  0  0  0  0  0  0
    7.6196   10.2465   24.9198 N   0  0  0  0  0  0  0  0  0  0  0  0
    8.5939   10.2819   23.9823 N   0  0  0  0  0  0  0  0  0  0  0  0
    8.9911    9.0176   23.6351 C   0  0  0  0  0  0  0  0  0  0  0  0
    8.8435    8.1421   24.4485 O   0  0  0  0  0  0  0  0  0  0  0  0
    9.5058    8.6826   22.3585 C   0  0  0  0  0  0  0  0  0  0  0  0
   10.6485    9.1998   21.8570 C   0  0  0  0  0  0  0  0  0  0  0  0
   11.3803    9.2883   20.9915 N   0  0  0  0  0  0  0  0  0  0  0  0
    9.1401    7.8537   21.4477 N   0  0  0  0  0  0  0  0  0  0  0  0
    7.9320    7.2749   21.6677 O   0  0  0  0  0  0  0  0  0  0  0  0
  2  1  1  1
  2  3  1  0
  2  4  1  0
  4  5  2  0
  4  6  1  0
  6  7  1  0
  7  8  2  0
  8  9  1  0
  9 10  1  0
 10 11  1  0
 10 12  1  0
 10 13  1  0
  9 14  2  0
 14 15  1  0
 15 16  1  0
 16 17  2  0
 16 18  1  0
 18 19  1  0
 19 20  3  0
 18 21  2  0
 21 22  1  0
 15  7  1  0
M  END
$$$$

     RDKit          3D

 16 17  0  0  0  0  0  0  0  0999 V2000
    8.3590   14.1311   22.2693 N   0  0  0  0  0  0  0  0  0  0  0  0
    9.0218   13.8204   23.5220 C   0  0  0  0  0  0  0  0  0  0  0  0
    8.6043   12.4907   24.0345 C   0  0  0  0  0  0  0  0  0  0  0  0
    9.3261   11.3841   23.6224 C   0  0  0  0  0  0  0  0  0  0  0  0
    9.0423   10.1331   24.0170 N   0  0  0  0  0  0  0  0  0  0  0  0
    7.9890    9.9729   24.8339 C   0  0  0  0  0  0  0  0  0  0  0  0
    7.2090   11.0101   25.3027 C   0  0  0  0  0  0  0  0  0  0  0  0
    7.5252   12.2979   24.9004 C   0  0  0  0  0  0  0  0  0  0  0  0
    6.7819   13.4102   25.3174 N   0  0  0  0  0  0  0  0  0  0  0  0
    5.7585   13.5262   26.2441 C   0  0  0  0  0  0  0  0  0  0  0  0
    5.1833   14.6102   26.4073 O   0  0  0  0  0  0  0  0  0  0  0  0
    5.4314   12.3078   27.1264 C   0  0  1  0  0  0  0  0  0  0  0  0
    6.4058   12.0033   28.2730 C   0  0  0  0  0  0  0  0  0  0  0  0
    5.3999   12.5917   29.2583 C   0  0  2  0  0  0  0  0  0  0  0  0
    5.2274   11.7851   30.7996 Cl  0  0  0  0  0  0  0  0  0  0  0  0
    4.3162   12.4313   28.1869 C   0  0  0  0  0  0  0  0  0  0  0  0
  1  2  1  0
  2  3  1  0
  3  4  2  0
  4  5  1  0
  5  6  2  0
  6  7  1  0
  7  8  2  0
  8  9  1  0
  9 10  1  0
 10 11  2  0
 12 10  1  1
 12 13  1  0
 13 14  1  0
 14 15  1  1
 14 16  1  0
  8  3  1  0
 16 12  1  0
M  END
$$$$

     RDKit          3D

 20 20  0  0  0  0  0  0  0  0999 V2000
    9.8644    8.8037   21.8806 C   0  0  0  0  0  0  0  0  0  0  0  0
   10.1151    9.1192   23.3197 C   0  0  0  0  0  0  0  0  0  0  0  0
    9.1715   10.1326   23.8304 C   0  0  0  0  0  0  0  0  0  0  0  0
    8.1370    9.7574   24.5898 N   0  0  0  0  0  0  0  0  0  0  0  0
    7.5788   10.9107   24.9620 N   0  0  0  0  0  0  0  0  0  0  0  0
    6.4780   10.8248   25.8935 C   0  0  0  0  0  0  0  0  0  0  0  0
    8.1387   12.0221   24.3925 C   0  0  0  0  0  0  0  0  0  0  0  0
    7.6655   13.2907   24.4957 N   0  0  0  0  0  0  0  0  0  0  0  0
    6.4409   13.5967   25.1902 C   0  0  0  0  0  0  0  0  0  0  0  0
    9.2443   11.5420   23.7130 C   0  0  0  0  0  0  0  0  0  0  0  0
   10.2226   12.2401   23.0361 N   0  0  0  0  0  0  0  0  0  0  0  0
   10.7191   13.4840   23.4040 C   0  0  0  0  0  0  0  0  0  0  0  0
   10.4217   14.0869   24.4346 O   0  0  0  0  0  0  0  0  0  0  0  0
   11.7196   14.0071   22.4000 C   0  0  2  0  0  0  0  0  0  0  0  0
   11.0649   14.3113   21.0771 C   0  0  0  0  0  0  0  0  0  0  0  0
   12.6642   12.9783   22.2212 O   0  0  0  0  0  0  0  0  0  0  0  0
   12.4718   15.1841   22.9374 C   0  0  0  0  0  0  0  0  0  0  0  0
   11.6990   16.2624   23.1724 F   0  0  0  0  0  0  0  0  0  0  0  0
   13.1029   14.8506   24.0856 F   0  0  0  0  0  0  0  0  0  0  0  0
   13.4098   15.5957   22.0544 F   0  0  0  0  0  0  0  0  0  0  0  0
  1  2  1  0
  2  3  1  0
  3  4  2  0
  4  5  1  0
  5  6  1  0
  5  7  1  0
  7  8  1  0
  8  9  1  0
  7 10  2  0
 10 11  1  0
 11 12  1  0
 12 13  2  0
 12 14  1  0
 14 15  1  6
 14 16  1  0
 14 17  1  0
 17 18  1  0
 17 19  1  0
 17 20  1  0
 10  3  1  0
M  END
$$$$

     RDKit          3D

 20 20  0  0  0  0  0  0  0  0999 V2000
    9.7810    8.7112   21.9249 C   0  0  0  0  0  0  0  0  0  0  0  0
   10.1018    9.1165   23.3268 C   0  0  0  0  0  0  0  0  0  0  0  0
    9.1701   10.1444   23.8303 C   0  0  0  0  0  0  0  0  0  0  0  0
    8.1259    9.7905   24.5887 N   0  0  0  0  0  0  0  0  0  0  0  0
    7.5872   10.9570   24.9518 N   0  0  0  0  0  0  0  0  0  0  0  0
    6.5024   10.9161   25.9050 C   0  0  0  0  0  0  0  0  0  0  0  0
    8.1730   12.0540   24.3838 C   0  0  0  0  0  0  0  0  0  0  0  0
    7.7313   13.3303   24.5257 N   0  0  0  0  0  0  0  0  0  0  0  0
    6.3180   13.6047   24.6407 C   0  0  0  0  0  0  0  0  0  0  0  0
    9.2690   11.5514   23.7068 C   0  0  0  0  0  0  0  0  0  0  0  0
   10.2425   12.2377   23.0115 N   0  0  0  0  0  0  0  0  0  0  0  0
   10.7565   13.4701   23.3869 C   0  0  0  0  0  0  0  0  0  0  0  0
   10.5909   13.9876   24.4914 O   0  0  0  0  0  0  0  0  0  0  0  0
   11.5611   14.1147   22.2790 C   0  0  1  0  0  0  0  0  0  0  0  0
   12.4930   13.1188   21.6823 C   0  0  0  0  0  0  0  0  0  0  0  0
   10.6919   14.5655   21.2561 O   0  0  0  0  0  0  0  0  0  0  0  0
   12.4305   15.2100   22.8262 C   0  0  0  0  0  0  0  0  0  0  0  0
   11.7413   16.2544   23.3237 F   0  0  0  0  0  0  0  0  0  0  0  0
   13.2342   14.7239   23.8028 F   0  0  0  0  0  0  0  0  0  0  0  0
   13.2314   15.7184   21.8603 F   0  0  0  0  0  0  0  0  0  0  0  0
  1  2  1  0
  2  3  1  0
  3  4  2  0
  4  5  1  0
  5  6  1  0
  5  7  1  0
  7  8  1  0
  8  9  1  0
  7 10  2  0
 10 11  1  0
 11 12  1  0
 12 13  2  0
 12 14  1  0
 14 15  1  6
 14 16  1  0
 14 17  1  0
 17 18  1  0
 17 19  1  0
 17 20  1  0
 10  3  1  0
M  END
$$$$

     RDKit          3D

 21 21  0  0  0  0  0  0  0  0999 V2000
   12.4318   15.0488   22.7100 C   0  0  0  0  0  0  0  0  0  0  0  0
   11.5429   13.8892   22.3308 C   0  0  2  0  0  0  0  0  0  0  0  0
   10.6780   14.3597   21.2557 N   0  0  0  0  0  0  0  0  0  0  0  0
   10.6375   13.5223   23.5003 C   0  0  0  0  0  0  0  0  0  0  0  0
   10.5689   14.1495   24.5579 O   0  0  0  0  0  0  0  0  0  0  0  0
    9.9220   12.3580   23.2556 N   0  0  0  0  0  0  0  0  0  0  0  0
    8.8992   11.9311   24.0853 C   0  0  0  0  0  0  0  0  0  0  0  0
    8.0418   12.5990   24.9413 C   0  0  0  0  0  0  0  0  0  0  0  0
    7.2347   11.6026   25.5463 C   0  0  0  0  0  0  0  0  0  0  0  0
    6.2277   11.7293   26.6430 C   0  0  0  0  0  0  0  0  0  0  0  0
    5.2988   12.6841   26.3910 F   0  0  0  0  0  0  0  0  0  0  0  0
    5.5470   10.5793   26.8969 F   0  0  0  0  0  0  0  0  0  0  0  0
    6.8374   12.0725   27.8118 F   0  0  0  0  0  0  0  0  0  0  0  0
    7.5499   10.4038   25.0656 N   0  0  0  0  0  0  0  0  0  0  0  0
    8.5327   10.6096   24.1656 N   0  0  0  0  0  0  0  0  0  0  0  0
    8.9774    9.4956   23.4865 C   0  0  0  0  0  0  0  0  0  0  0  0
    8.3209    8.4808   23.5645 O   0  0  0  0  0  0  0  0  0  0  0  0
   10.2219    9.6670   22.7537 C   0  0  2  0  0  0  0  0  0  0  0  0
   10.0729    9.0031   21.4378 C   0  0  0  0  0  0  0  0  0  0  0  0
   11.1581    8.8397   23.4201 C   0  0  0  0  0  0  0  0  0  0  0  0
   11.9860    8.2021   23.8845 N   0  0  0  0  0  0  0  0  0  0  0  0
  2  1  1  1
  2  3  1  0
  2  4  1  0
  4  5  2  0
  4  6  1  0
  6  7  1  0
  7  8  2  0
  8  9  1  0
  9 10  1  0
 10 11  1  0
 10 12  1  0
 10 13  1  0
  9 14  2  0
 14 15  1  0
 15 16  1  0
 16 17  2  0
 16 18  1  0
 18 19  1  6
 18 20  1  0
 20 21  3  0
 15  7  1  0
M  END
$$$$

     RDKit          3D

 21 21  0  0  0  0  0  0  0  0999 V2000
   11.1742    8.0448   23.4878 C   0  0  0  0  0  0  0  0  0  0  0  0
    9.7810    8.5928   23.3208 C   0  0  2  0  0  0  0  0  0  0  0  0
    9.5467    8.3519   21.9239 C   0  0  0  0  0  0  0  0  0  0  0  0
    9.5201    8.1469   20.7870 N   0  0  0  0  0  0  0  0  0  0  0  0
    9.9267   10.0400   23.4719 C   0  0  0  0  0  0  0  0  0  0  0  0
   10.9040   10.6988   23.1650 O   0  0  0  0  0  0  0  0  0  0  0  0
    8.8427   10.7381   23.9858 N   0  0  0  0  0  0  0  0  0  0  0  0
    7.9022   10.1747   24.7943 N   0  0  0  0  0  0  0  0  0  0  0  0
    7.2312   11.2357   25.3028 C   0  0  0  0  0  0  0  0  0  0  0  0
    6.2034   11.1461   26.3962 C   0  0  0  0  0  0  0  0  0  0  0  0
    5.2101   12.0635   26.2443 F   0  0  0  0  0  0  0  0  0  0  0  0
    5.5962    9.9393   26.4906 F   0  0  0  0  0  0  0  0  0  0  0  0
    6.7603   11.3996   27.6133 F   0  0  0  0  0  0  0  0  0  0  0  0
    7.6669   12.4545   24.7187 C   0  0  0  0  0  0  0  0  0  0  0  0
    8.6775   12.1036   23.8654 C   0  0  0  0  0  0  0  0  0  0  0  0
    9.5232   12.8452   23.0553 N   0  0  0  0  0  0  0  0  0  0  0  0
   10.5119   13.6182   23.6495 C   0  0  0  0  0  0  0  0  0  0  0  0
   10.4293   14.0695   24.7948 O   0  0  0  0  0  0  0  0  0  0  0  0
   11.7203   13.7748   22.7415 C   0  0  1  0  0  0  0  0  0  0  0  0
   11.9417   15.2403   22.4600 C   0  0  0  0  0  0  0  0  0  0  0  0
   12.8711   13.3148   23.5136 N   0  0  0  0  0  0  0  0  0  0  0  0
  2  1  1  6
  2  3  1  0
  3  4  3  0
  2  5  1  0
  5  6  2  0
  5  7  1  0
  7  8  1  0
  8  9  2  0
  9 10  1  0
 10 11  1  0
 10 12  1  0
 10 13  1  0
  9 14  1  0
 14 15  2  0
 15 16  1  0
 16 17  1  0
 17 18  2  0
 17 19  1  0
 19 20  1  1
 19 21  1  0
 15  7  1  0
M  END
$$$$

     RDKit          3D

 22 22  0  0  0  0  0  0  0  0999 V2000
    4.5811    9.0188   29.1704 C   0  0  0  0  0  0  0  0  0  0  0  0
    4.4795    9.7762   27.8630 C   0  0  2  0  0  0  0  0  0  0  0  0
    4.0424    8.7830   26.8993 N   0  0  0  0  0  0  0  0  0  0  0  0
    5.8286   10.3490   27.4858 C   0  0  0  0  0  0  0  0  0  0  0  0
    6.7912   10.1882   28.2367 O   0  0  0  0  0  0  0  0  0  0  0  0
    5.8520   11.2223   26.3968 N   0  0  0  0  0  0  0  0  0  0  0  0
    6.9955   11.2855   25.6060 C   0  0  0  0  0  0  0  0  0  0  0  0
    7.6058   12.3770   24.9365 C   0  0  0  0  0  0  0  0  0  0  0  0
    8.6771   11.8514   24.2156 C   0  0  0  0  0  0  0  0  0  0  0  0
    9.6490   12.5077   23.3218 C   0  0  0  0  0  0  0  0  0  0  0  0
    9.0075   13.1269   22.3050 F   0  0  0  0  0  0  0  0  0  0  0  0
   10.3722   13.4395   23.9817 F   0  0  0  0  0  0  0  0  0  0  0  0
   10.5221   11.6464   22.7763 F   0  0  0  0  0  0  0  0  0  0  0  0
    8.5379   10.4943   24.3624 N   0  0  0  0  0  0  0  0  0  0  0  0
    8.9050    9.4133   23.6268 C   0  0  0  0  0  0  0  0  0  0  0  0
    8.1199    8.5199   23.3998 O   0  0  0  0  0  0  0  0  0  0  0  0
   10.2235    9.2651   23.1511 C   0  0  0  0  0  0  0  0  0  0  0  0
   10.3296    8.9049   21.8236 C   0  0  0  0  0  0  0  0  0  0  0  0
   10.0979    8.6482   20.7307 N   0  0  0  0  0  0  0  0  0  0  0  0
   11.2124    9.2861   23.9380 N   0  0  0  0  0  0  0  0  0  0  0  0
   12.0844    8.3294   23.5331 O   0  0  0  0  0  0  0  0  0  0  0  0
    7.6416   10.1811   25.3067 N   0  0  0  0  0  0  0  0  0  0  0  0
  2  1  1  1
  2  3  1  0
  2  4  1  0
  4  5  2  0
  4  6  1  0
  6  7  1  0
  7  8  1  0
  8  9  2  0
  9 10  1  0
 10 11  1  0
 10 12  1  0
 10 13  1  0
  9 14  1  0
 14 15  1  0
 15 16  2  0
 15 17  1  0
 17 18  1  0
 18 19  3  0
 17 20  2  0
 20 21  1  0
 14 22  1  0
 22  7  2  0
M  END
$$$$

     RDKit          3D

 22 22  0  0  0  0  0  0  0  0999 V2000
    4.5584    9.3280   29.0338 C   0  0  0  0  0  0  0  0  0  0  0  0
    4.5085    9.9003   27.6304 C   0  0  2  0  0  0  0  0  0  0  0  0
    4.1140    8.7658   26.8104 N   0  0  0  0  0  0  0  0  0  0  0  0
    5.8787   10.4068   27.2241 C   0  0  0  0  0  0  0  0  0  0  0  0
    6.8308   10.1738   27.9597 O   0  0  0  0  0  0  0  0  0  0  0  0
    5.9205   11.2530   26.1186 N   0  0  0  0  0  0  0  0  0  0  0  0
    7.1036   11.5603   25.4265 C   0  0  0  0  0  0  0  0  0  0  0  0
    7.3377   12.6411   24.5296 C   0  0  0  0  0  0  0  0  0  0  0  0
    8.5708   12.3940   23.9422 C   0  0  0  0  0  0  0  0  0  0  0  0
    9.4348   13.0938   22.9823 C   0  0  0  0  0  0  0  0  0  0  0  0
   10.0284   12.2324   22.1515 F   0  0  0  0  0  0  0  0  0  0  0  0
   10.3837   13.8188   23.6059 F   0  0  0  0  0  0  0  0  0  0  0  0
    8.7036   13.9149   22.1987 F   0  0  0  0  0  0  0  0  0  0  0  0
    8.9019   11.1287   24.3370 N   0  0  0  0  0  0  0  0  0  0  0  0
    9.8691   10.2748   23.7972 C   0  0  0  0  0  0  0  0  0  0  0  0
   10.9779   10.6808   23.5151 O   0  0  0  0  0  0  0  0  0  0  0  0
    9.3242    9.0881   23.1635 C   0  0  0  0  0  0  0  0  0  0  0  0
    9.7353    8.6610   21.8881 C   0  0  0  0  0  0  0  0  0  0  0  0
    9.8018    8.3943   20.7666 N   0  0  0  0  0  0  0  0  0  0  0  0
    8.2806    8.4333   23.4814 N   0  0  0  0  0  0  0  0  0  0  0  0
    7.8154    8.7138   24.7173 O   0  0  0  0  0  0  0  0  0  0  0  0
    8.2044   10.8135   25.4562 N   0  0  0  0  0  0  0  0  0  0  0  0
  2  1  1  1
  2  3  1  0
  2  4  1  0
  4  5  2  0
  4  6  1  0
  6  7  1  0
  7  8  1  0
  8  9  2  0
  9 10  1  0
 10 11  1  0
 10 12  1  0
 10 13  1  0
  9 14  1  0
 14 15  1  0
 15 16  2  0
 15 17  1  0
 17 18  1  0
 18 19  3  0
 17 20  2  0
 20 21  1  0
 14 22  1  0
 22  7  2  0
M  END
$$$$
