
     RDKit          3D

 26 27  0  0  0  0  0  0  0  0999 V2000
   11.0995   14.5005   19.1323 C   0  0  0  0  0  0  0  0  0  0  0  0
   11.8033   14.1482   20.4144 C   0  0  0  0  0  0  0  0  0  0  0  0
   10.8076   14.0131   21.5571 C   0  0  0  0  0  0  0  0  0  0  0  0
   11.5261   14.2962   22.8629 C   0  0  1  0  0  0  0  0  0  0  0  0
   11.9596   15.6936   22.7447 C   0  0  0  0  0  0  0  0  0  0  0  0
   12.1190   16.8309   22.5848 N   0  0  0  0  0  0  0  0  0  0  0  0
   10.6716   14.2160   24.1334 C   0  0  0  0  0  0  0  0  0  0  0  0
   10.9892   14.8418   25.1581 O   0  0  0  0  0  0  0  0  0  0  0  0
    9.5182   13.4768   24.1993 N   0  0  0  0  0  0  0  0  0  0  0  0
    9.4079   12.1611   23.8467 C   0  0  0  0  0  0  0  0  0  0  0  0
   10.2356   11.3839   23.0801 C   0  0  0  0  0  0  0  0  0  0  0  0
    9.7205   10.0843   23.1565 C   0  0  0  0  0  0  0  0  0  0  0  0
   10.2328    8.8960   22.4446 C   0  0  0  0  0  0  0  0  0  0  0  0
   10.8089    9.2688   21.2837 F   0  0  0  0  0  0  0  0  0  0  0  0
    9.2460    8.0615   22.0738 F   0  0  0  0  0  0  0  0  0  0  0  0
   11.1590    8.2281   23.1548 F   0  0  0  0  0  0  0  0  0  0  0  0
    8.6393   10.0483   23.9371 N   0  0  0  0  0  0  0  0  0  0  0  0
    8.4562   11.3017   24.3767 N   0  0  0  0  0  0  0  0  0  0  0  0
    7.4238   11.4990   25.3093 C   0  0  0  0  0  0  0  0  0  0  0  0
    7.1131   12.7392   25.8362 C   0  0  0  0  0  0  0  0  0  0  0  0
    6.1274   12.8214   26.8190 C   0  0  0  0  0  0  0  0  0  0  0  0
    5.4650   11.6788   27.2727 C   0  0  0  0  0  0  0  0  0  0  0  0
    4.4422   11.7904   28.3460 C   0  0  0  0  0  0  0  0  0  0  0  0
    5.7684   10.4415   26.7283 C   0  0  0  0  0  0  0  0  0  0  0  0
    5.0775    9.2055   27.1851 C   0  0  0  0  0  0  0  0  0  0  0  0
    6.7414   10.3614   25.7473 C   0  0  0  0  0  0  0  0  0  0  0  0
  1  2  1  0
  2  3  1  0
  4  3  1  6
  4  5  1  0
  5  6  3  0
  4  7  1  0
  7  8  2  0
  7  9  1  0
  9 10  1  0
 10 11  2  0
 11 12  1  0
 12 13  1  0
 13 14  1  0
 13 15  1  0
 13 16  1  0
 12 17  2  0
 17 18  1  0
 18 19  1  0
 19 20  2  0
 20 21  1  0
 21 22  2  0
 22 23  1  0
 22 24  1  0
 24 25  1  0
 24 26  2  0
 18 10  1  0
 26 19  1  0
M  END
$$$$

     RDKit          3D

 26 27  0  0  0  0  0  0  0  0999 V2000
   11.0995   14.5005   19.1323 C   0  0  0  0  0  0  0  0  0  0  0  0
   11.8033   14.1482   20.4144 C   0  0  0  0  0  0  0  0  0  0  0  0
   10.8076   14.0131   21.5571 C   0  0  0  0  0  0  0  0  0  0  0  0
   11.5261   14.2962   22.8629 C   0  0  1  0  0  0  0  0  0  0  0  0
   11.9596   15.6936   22.7447 C   0  0  0  0  0  0  0  0  0  0  0  0
   12.1190   16.8309   22.5848 N   0  0  0  0  0  0  0  0  0  0  0  0
   10.6716   14.2160   24.1334 C   0  0  0  0  0  0  0  0  0  0  0  0
   10.9892   14.8418   25.1581 O   0  0  0  0  0  0  0  0  0  0  0  0
    9.5182   13.4768   24.1993 N   0  0  0  0  0  0  0  0  0  0  0  0
    9.4079   12.1611   23.8467 C   0  0  0  0  0  0  0  0  0  0  0  0
   10.2356   11.3839   23.0801 C   0  0  0  0  0  0  0  0  0  0  0  0
    9.7205   10.0843   23.1565 C   0  0  0  0  0  0  0  0  0  0  0  0
   10.2328    8.8960   22.4446 C   0  0  0  0  0  0  0  0  0  0  0  0
   10.8089    9.2688   21.2837 F   0  0  0  0  0  0  0  0  0  0  0  0
    9.2460    8.0615   22.0738 F   0  0  0  0  0  0  0  0  0  0  0  0
   11.1590    8.2281   23.1548 F   0  0  0  0  0  0  0  0  0  0  0  0
    8.6393   10.0483   23.9371 N   0  0  0  0  0  0  0  0  0  0  0  0
    8.4562   11.3017   24.3767 N   0  0  0  0  0  0  0  0  0  0  0  0
    7.4238   11.4990   25.3093 C   0  0  0  0  0  0  0  0  0  0  0  0
    7.1131   12.7392   25.8362 C   0  0  0  0  0  0  0  0  0  0  0  0
    6.1274   12.8214   26.8190 C   0  0  0  0  0  0  0  0  0  0  0  0
    5.4650   11.6788   27.2727 C   0  0  0  0  0  0  0  0  0  0  0  0
    4.4422   11.7904   28.3460 C   0  0  0  0  0  0  0  0  0  0  0  0
    5.7684   10.4415   26.7283 C   0  0  0  0  0  0  0  0  0  0  0  0
    5.0775    9.2055   27.1851 C   0  0  0  0  0  0  0  0  0  0  0  0
    6.7414   10.3614   25.7473 C   0  0  0  0  0  0  0  0  0  0  0  0
  1  2  1  0
  2  3  1  0
  4  3  1  6
  4  5  1  0
  5  6  3  0
  4  7  1  0
  7  8  2  0
  7  9  1  0
  9 10  1  0
 10 11  2  0
 11 12  1  0
 12 13  1  0
 13 14  1  0
 13 15  1  0
 13 16  1  0
 12 17  2  0
 17 18  1  0
 18 19  1  0
 19 20  2  0
 20 21  1  0
 21 22  2  0
 22 23  1  0
 22 24  1  0
 24 25  1  0
 24 26  2  0
 18 10  1  0
 26 19  1  0
M  END
$$$$

     RDKit          3D

 26 27  0  0  0  0  0  0  0  0999 V2000
   11.0995   14.5005   19.1323 C   0  0  0  0  0  0  0  0  0  0  0  0
   11.8033   14.1482   20.4144 C   0  0  0  0  0  0  0  0  0  0  0  0
   10.8076   14.0131   21.5571 C   0  0  0  0  0  0  0  0  0  0  0  0
   11.5261   14.2962   22.8629 C   0  0  1  0  0  0  0  0  0  0  0  0
   11.9596   15.6936   22.7447 C   0  0  0  0  0  0  0  0  0  0  0  0
   12.1190   16.8309   22.5848 N   0  0  0  0  0  0  0  0  0  0  0  0
   10.6716   14.2160   24.1334 C   0  0  0  0  0  0  0  0  0  0  0  0
   10.9892   14.8418   25.1581 O   0  0  0  0  0  0  0  0  0  0  0  0
    9.5182   13.4768   24.1993 N   0  0  0  0  0  0  0  0  0  0  0  0
    9.4079   12.1611   23.8467 C   0  0  0  0  0  0  0  0  0  0  0  0
   10.2356   11.3839   23.0801 C   0  0  0  0  0  0  0  0  0  0  0  0
    9.7205   10.0843   23.1565 C   0  0  0  0  0  0  0  0  0  0  0  0
   10.2328    8.8960   22.4446 C   0  0  0  0  0  0  0  0  0  0  0  0
   10.8089    9.2688   21.2837 F   0  0  0  0  0  0  0  0  0  0  0  0
    9.2460    8.0615   22.0738 F   0  0  0  0  0  0  0  0  0  0  0  0
   11.1590    8.2281   23.1548 F   0  0  0  0  0  0  0  0  0  0  0  0
    8.6393   10.0483   23.9371 N   0  0  0  0  0  0  0  0  0  0  0  0
    8.4562   11.3017   24.3767 N   0  0  0  0  0  0  0  0  0  0  0  0
    7.4238   11.4990   25.3093 C   0  0  0  0  0  0  0  0  0  0  0  0
    7.1131   12.7392   25.8362 C   0  0  0  0  0  0  0  0  0  0  0  0
    6.1274   12.8214   26.8190 C   0  0  0  0  0  0  0  0  0  0  0  0
    5.4650   11.6788   27.2727 C   0  0  0  0  0  0  0  0  0  0  0  0
    4.4422   11.7904   28.3460 C   0  0  0  0  0  0  0  0  0  0  0  0
    5.7684   10.4415   26.7283 C   0  0  0  0  0  0  0  0  0  0  0  0
    5.0775    9.2055   27.1851 C   0  0  0  0  0  0  0  0  0  0  0  0
    6.7414   10.3614   25.7473 C   0  0  0  0  0  0  0  0  0  0  0  0
  1  2  1  0
  2  3  1  0
  4  3  1  6
  4  5  1  0
  5  6  3  0
  4  7  1  0
  7  8  2  0
  7  9  1  0
  9 10  1  0
 10 11  2  0
 11 12  1  0
 12 13  1  0
 13 14  1  0
 13 15  1  0
 13 16  1  0
 12 17  2  0
 17 18  1  0
 18 19  1  0
 19 20  2  0
 20 21  1  0
 21 22  2  0
 22 23  1  0
 22 24  1  0
 24 25  1  0
 24 26  2  0
 18 10  1  0
 26 19  1  0
M  END
$$$$

     RDKit          3D

 26 27  0  0  0  0  0  0  0  0999 V2000
   11.0995   14.5005   19.1323 C   0  0  0  0  0  0  0  0  0  0  0  0
   11.8033   14.1482   20.4144 C   0  0  0  0  0  0  0  0  0  0  0  0
   10.8076   14.0131   21.5571 C   0  0  0  0  0  0  0  0  0  0  0  0
   11.5261   14.2962   22.8629 C   0  0  1  0  0  0  0  0  0  0  0  0
   11.9596   15.6936   22.7447 C   0  0  0  0  0  0  0  0  0  0  0  0
   12.1190   16.8309   22.5848 N   0  0  0  0  0  0  0  0  0  0  0  0
   10.6716   14.2160   24.1334 C   0  0  0  0  0  0  0  0  0  0  0  0
   10.9892   14.8418   25.1581 O   0  0  0  0  0  0  0  0  0  0  0  0
    9.5182   13.4768   24.1993 N   0  0  0  0  0  0  0  0  0  0  0  0
    9.4079   12.1611   23.8467 C   0  0  0  0  0  0  0  0  0  0  0  0
   10.2356   11.3839   23.0801 C   0  0  0  0  0  0  0  0  0  0  0  0
    9.7205   10.0843   23.1565 C   0  0  0  0  0  0  0  0  0  0  0  0
   10.2328    8.8960   22.4446 C   0  0  0  0  0  0  0  0  0  0  0  0
   10.8089    9.2688   21.2837 F   0  0  0  0  0  0  0  0  0  0  0  0
    9.2460    8.0615   22.0738 F   0  0  0  0  0  0  0  0  0  0  0  0
   11.1590    8.2281   23.1548 F   0  0  0  0  0  0  0  0  0  0  0  0
    8.6393   10.0483   23.9371 N   0  0  0  0  0  0  0  0  0  0  0  0
    8.4562   11.3017   24.3767 N   0  0  0  0  0  0  0  0  0  0  0  0
    7.4238   11.4990   25.3093 C   0  0  0  0  0  0  0  0  0  0  0  0
    7.1131   12.7392   25.8362 C   0  0  0  0  0  0  0  0  0  0  0  0
    6.1274   12.8214   26.8190 C   0  0  0  0  0  0  0  0  0  0  0  0
    5.4650   11.6788   27.2727 C   0  0  0  0  0  0  0  0  0  0  0  0
    4.4422   11.7904   28.3460 C   0  0  0  0  0  0  0  0  0  0  0  0
    5.7684   10.4415   26.7283 C   0  0  0  0  0  0  0  0  0  0  0  0
    5.0775    9.2055   27.1851 C   0  0  0  0  0  0  0  0  0  0  0  0
    6.7414   10.3614   25.7473 C   0  0  0  0  0  0  0  0  0  0  0  0
  1  2  1  0
  2  3  1  0
  4  3  1  6
  4  5  1  0
  5  6  3  0
  4  7  1  0
  7  8  2  0
  7  9  1  0
  9 10  1  0
 10 11  2  0
 11 12  1  0
 12 13  1  0
 13 14  1  0
 13 15  1  0
 13 16  1  0
 12 17  2  0
 17 18  1  0
 18 19  1  0
 19 20  2  0
 20 21  1  0
 21 22  2  0
 22 23  1  0
 22 24  1  0
 24 25  1  0
 24 26  2  0
 18 10  1  0
 26 19  1  0
M  END
$$$$

     RDKit          3D

 14 15  0  0  0  0  0  0  0  0999 V2000
   10.1791    9.4234   22.9506 C   0  0  0  0  0  0  0  0  0  0  0  0
    9.2249   10.3098   23.6678 C   0  0  0  0  0  0  0  0  0  0  0  0
    8.2367    9.7297   24.4358 C   0  0  0  0  0  0  0  0  0  0  0  0
    7.2960   10.4215   25.1254 N   0  0  0  0  0  0  0  0  0  0  0  0
    7.3253   11.7626   25.0329 C   0  0  0  0  0  0  0  0  0  0  0  0
    8.2894   12.4291   24.3259 C   0  0  0  0  0  0  0  0  0  0  0  0
    9.2832   11.6971   23.6784 C   0  0  0  0  0  0  0  0  0  0  0  0
   10.3924   12.3797   23.1502 N   0  0  0  0  0  0  0  0  0  0  0  0
   10.7764   13.6213   23.6342 C   0  0  0  0  0  0  0  0  0  0  0  0
   10.2616   14.2269   24.5724 O   0  0  0  0  0  0  0  0  0  0  0  0
   12.0219   14.1527   23.0628 C   0  0  0  0  0  0  0  0  0  0  0  0
   13.2624   13.6205   23.6650 C   0  0  0  0  0  0  0  0  0  0  0  0
   12.0606   14.6359   21.6462 C   0  0  0  0  0  0  0  0  0  0  0  0
   12.0731   15.6313   22.7553 C   0  0  0  0  0  0  0  0  0  0  0  0
  1  2  1  0
  2  3  2  0
  3  4  1  0
  4  5  2  0
  5  6  1  0
  6  7  2  0
  7  8  1  0
  8  9  1  0
  9 10  2  0
  9 11  1  0
 11 12  1  0
 11 13  1  0
 13 14  1  0
  7  2  1  0
 14 11  1  0
M  END
$$$$

     RDKit          3D

 14 15  0  0  0  0  0  0  0  0999 V2000
   10.1791    9.4234   22.9506 C   0  0  0  0  0  0  0  0  0  0  0  0
    9.2249   10.3098   23.6678 C   0  0  0  0  0  0  0  0  0  0  0  0
    8.2367    9.7297   24.4358 C   0  0  0  0  0  0  0  0  0  0  0  0
    7.2960   10.4215   25.1254 N   0  0  0  0  0  0  0  0  0  0  0  0
    7.3253   11.7626   25.0329 C   0  0  0  0  0  0  0  0  0  0  0  0
    8.2894   12.4291   24.3259 C   0  0  0  0  0  0  0  0  0  0  0  0
    9.2832   11.6971   23.6784 C   0  0  0  0  0  0  0  0  0  0  0  0
   10.3924   12.3797   23.1502 N   0  0  0  0  0  0  0  0  0  0  0  0
   10.7764   13.6213   23.6342 C   0  0  0  0  0  0  0  0  0  0  0  0
   10.2616   14.2269   24.5724 O   0  0  0  0  0  0  0  0  0  0  0  0
   12.0219   14.1527   23.0628 C   0  0  0  0  0  0  0  0  0  0  0  0
   13.2624   13.6205   23.6650 C   0  0  0  0  0  0  0  0  0  0  0  0
   12.0606   14.6359   21.6462 C   0  0  0  0  0  0  0  0  0  0  0  0
   12.0731   15.6313   22.7553 C   0  0  0  0  0  0  0  0  0  0  0  0
  1  2  1  0
  2  3  2  0
  3  4  1  0
  4  5  2  0
  5  6  1  0
  6  7  2  0
  7  8  1  0
  8  9  1  0
  9 10  2  0
  9 11  1  0
 11 12  1  0
 11 13  1  0
 13 14  1  0
  7  2  1  0
 14 11  1  0
M  END
$$$$

     RDKit          3D

 15 16  0  0  0  0  0  0  0  0999 V2000
    6.6476   10.7316   25.7809 C   0  0  0  0  0  0  0  0  0  0  0  0
    7.7875   10.6165   24.8232 C   0  0  0  0  0  0  0  0  0  0  0  0
    8.1415    9.3615   24.4829 N   0  0  0  0  0  0  0  0  0  0  0  0
    9.1499    9.1843   23.5958 C   0  0  0  0  0  0  0  0  0  0  0  0
    9.8476   10.2364   23.0655 C   0  0  0  0  0  0  0  0  0  0  0  0
    9.5050   11.5264   23.4647 C   0  0  0  0  0  0  0  0  0  0  0  0
   10.3961   12.5057   23.0178 N   0  0  0  0  0  0  0  0  0  0  0  0
   10.7633   13.6580   23.6653 C   0  0  0  0  0  0  0  0  0  0  0  0
   10.2903   14.1270   24.6950 O   0  0  0  0  0  0  0  0  0  0  0  0
   11.9918   14.2592   23.1128 C   0  0  0  0  0  0  0  0  0  0  0  0
   13.2546   13.7196   23.6643 C   0  0  0  0  0  0  0  0  0  0  0  0
   12.0094   14.7790   21.7073 C   0  0  0  0  0  0  0  0  0  0  0  0
   12.0131   15.7412   22.8457 C   0  0  0  0  0  0  0  0  0  0  0  0
    8.4149   11.7392   24.3113 C   0  0  0  0  0  0  0  0  0  0  0  0
    7.8743   13.0866   24.6412 C   0  0  0  0  0  0  0  0  0  0  0  0
  1  2  1  0
  2  3  2  0
  3  4  1  0
  4  5  2  0
  5  6  1  0
  6  7  1  0
  7  8  1  0
  8  9  2  0
  8 10  1  0
 10 11  1  0
 10 12  1  0
 12 13  1  0
  6 14  2  0
 14 15  1  0
 14  2  1  0
 13 10  1  0
M  END
$$$$

     RDKit          3D

 15 16  0  0  0  0  0  0  0  0999 V2000
    6.6476   10.7316   25.7809 C   0  0  0  0  0  0  0  0  0  0  0  0
    7.7875   10.6165   24.8232 C   0  0  0  0  0  0  0  0  0  0  0  0
    8.1415    9.3615   24.4829 N   0  0  0  0  0  0  0  0  0  0  0  0
    9.1499    9.1843   23.5958 C   0  0  0  0  0  0  0  0  0  0  0  0
    9.8476   10.2364   23.0655 C   0  0  0  0  0  0  0  0  0  0  0  0
    9.5050   11.5264   23.4647 C   0  0  0  0  0  0  0  0  0  0  0  0
   10.3961   12.5057   23.0178 N   0  0  0  0  0  0  0  0  0  0  0  0
   10.7633   13.6580   23.6653 C   0  0  0  0  0  0  0  0  0  0  0  0
   10.2903   14.1270   24.6950 O   0  0  0  0  0  0  0  0  0  0  0  0
   11.9918   14.2592   23.1128 C   0  0  0  0  0  0  0  0  0  0  0  0
   13.2546   13.7196   23.6643 C   0  0  0  0  0  0  0  0  0  0  0  0
   12.0094   14.7790   21.7073 C   0  0  0  0  0  0  0  0  0  0  0  0
   12.0131   15.7412   22.8457 C   0  0  0  0  0  0  0  0  0  0  0  0
    8.4149   11.7392   24.3113 C   0  0  0  0  0  0  0  0  0  0  0  0
    7.8743   13.0866   24.6412 C   0  0  0  0  0  0  0  0  0  0  0  0
  1  2  1  0
  2  3  2  0
  3  4  1  0
  4  5  2  0
  5  6  1  0
  6  7  1  0
  7  8  1  0
  8  9  2  0
  8 10  1  0
 10 11  1  0
 10 12  1  0
 12 13  1  0
  6 14  2  0
 14 15  1  0
 14  2  1  0
 13 10  1  0
M  END
$$$$

     RDKit          3D

 21 21  0  0  0  0  0  0  0  0999 V2000
    4.9769    8.7259   28.6017 C   0  0  0  0  0  0  0  0  0  0  0  0
    5.0021   10.0243   27.8329 C   0  0  0  0  0  0  0  0  0  0  0  0
    6.0693    9.9837   26.8965 O   0  0  0  0  0  0  0  0  0  0  0  0
    6.2461   11.1538   26.2219 C   0  0  0  0  0  0  0  0  0  0  0  0
    5.5492   12.1449   26.4290 O   0  0  0  0  0  0  0  0  0  0  0  0
    7.3586   11.0971   25.2499 C   0  0  0  0  0  0  0  0  0  0  0  0
    7.9211    9.9293   24.8820 N   0  0  0  0  0  0  0  0  0  0  0  0
    8.8939   10.2606   24.0181 N   0  0  0  0  0  0  0  0  0  0  0  0
    9.6947    9.2087   23.4187 C   0  0  0  0  0  0  0  0  0  0  0  0
    9.0292   11.6059   23.8245 C   0  0  0  0  0  0  0  0  0  0  0  0
   10.0465   12.1156   23.0335 N   0  0  0  0  0  0  0  0  0  0  0  0
   10.6887   13.3116   23.3403 C   0  0  0  0  0  0  0  0  0  0  0  0
   10.5812   13.8841   24.4242 O   0  0  0  0  0  0  0  0  0  0  0  0
   11.5428   13.8171   22.1986 C   0  0  1  0  0  0  0  0  0  0  0  0
   10.6365   14.3319   21.1694 N   0  0  0  0  0  0  0  0  0  0  0  0
   12.4590   14.9067   22.7107 C   0  0  0  0  0  0  0  0  0  0  0  0
   11.7965   15.9741   23.2139 F   0  0  0  0  0  0  0  0  0  0  0  0
   13.2780   14.4292   23.6779 F   0  0  0  0  0  0  0  0  0  0  0  0
   13.2428   15.3962   21.7249 F   0  0  0  0  0  0  0  0  0  0  0  0
    7.9857   12.1577   24.5425 C   0  0  0  0  0  0  0  0  0  0  0  0
    7.4115   13.9404   24.5826 Br  0  0  0  0  0  0  0  0  0  0  0  0
  1  2  1  0
  2  3  1  0
  3  4  1  0
  4  5  2  0
  4  6  1  0
  6  7  2  0
  7  8  1  0
  8  9  1  0
  8 10  1  0
 10 11  1  0
 11 12  1  0
 12 13  2  0
 12 14  1  0
 14 15  1  6
 14 16  1  0
 16 17  1  0
 16 18  1  0
 16 19  1  0
 10 20  2  0
 20 21  1  0
 20  6  1  0
M  END
$$$$

     RDKit          3D

 18 19  0  0  0  0  0  0  0  0999 V2000
   10.8628   14.5314   23.9407 O   0  0  0  0  0  0  0  0  0  0  0  0
    9.6830   14.3325   24.1815 C   0  0  0  0  0  0  0  0  0  0  0  0
    9.1123   13.0210   24.0792 C   0  0  0  0  0  0  0  0  0  0  0  0
    9.8693   12.0997   23.3944 C   0  0  0  0  0  0  0  0  0  0  0  0
    9.5573   10.8159   23.4156 N   0  0  0  0  0  0  0  0  0  0  0  0
    8.5046   10.4791   24.1673 C   0  0  0  0  0  0  0  0  0  0  0  0
    8.3192    8.8369   24.2481 Cl  0  0  0  0  0  0  0  0  0  0  0  0
    7.6428   11.3280   24.8341 C   0  0  0  0  0  0  0  0  0  0  0  0
    7.9541   12.6651   24.7688 C   0  0  0  0  0  0  0  0  0  0  0  0
    7.1947   13.6670   25.3787 N   0  0  0  0  0  0  0  0  0  0  0  0
    6.0423   13.6470   26.1195 C   0  0  0  0  0  0  0  0  0  0  0  0
    5.5159   14.6946   26.5023 O   0  0  0  0  0  0  0  0  0  0  0  0
    5.4906   12.3151   26.5354 C   0  0  1  0  0  0  0  0  0  0  0  0
    6.1559   11.8680   27.8260 C   0  0  0  0  0  0  0  0  0  0  0  0
    5.4753   12.4005   29.0712 C   0  0  0  0  0  0  0  0  0  0  0  0
    3.9614   12.4312   28.9737 C   0  0  0  0  0  0  0  0  0  0  0  0
    3.5017   11.7799   27.7965 O   0  0  0  0  0  0  0  0  0  0  0  0
    3.9962   12.4971   26.6782 C   0  0  0  0  0  0  0  0  0  0  0  0
  1  2  2  0
  2  3  1  0
  3  4  2  0
  4  5  1  0
  5  6  2  0
  6  7  1  0
  6  8  1  0
  8  9  2  0
  9 10  1  0
 10 11  1  0
 11 12  2  0
 13 11  1  1
 13 14  1  0
 14 15  1  0
 15 16  1  0
 16 17  1  0
 17 18  1  0
  9  3  1  0
 18 13  1  0
M  END
$$$$

     RDKit          3D

 18 19  0  0  0  0  0  0  0  0999 V2000
   10.8628   14.5314   23.9407 O   0  0  0  0  0  0  0  0  0  0  0  0
    9.6830   14.3325   24.1815 C   0  0  0  0  0  0  0  0  0  0  0  0
    9.1123   13.0210   24.0792 C   0  0  0  0  0  0  0  0  0  0  0  0
    9.8693   12.0997   23.3944 C   0  0  0  0  0  0  0  0  0  0  0  0
    9.5573   10.8159   23.4156 N   0  0  0  0  0  0  0  0  0  0  0  0
    8.5046   10.4791   24.1673 C   0  0  0  0  0  0  0  0  0  0  0  0
    8.3192    8.8369   24.2481 Cl  0  0  0  0  0  0  0  0  0  0  0  0
    7.6428   11.3280   24.8341 C   0  0  0  0  0  0  0  0  0  0  0  0
    7.9541   12.6651   24.7688 C   0  0  0  0  0  0  0  0  0  0  0  0
    7.1947   13.6670   25.3787 N   0  0  0  0  0  0  0  0  0  0  0  0
    6.0423   13.6470   26.1195 C   0  0  0  0  0  0  0  0  0  0  0  0
    5.5159   14.6946   26.5023 O   0  0  0  0  0  0  0  0  0  0  0  0
    5.4906   12.3151   26.5354 C   0  0  1  0  0  0  0  0  0  0  0  0
    6.1559   11.8680   27.8260 C   0  0  0  0  0  0  0  0  0  0  0  0
    5.4753   12.4005   29.0712 C   0  0  0  0  0  0  0  0  0  0  0  0
    3.9614   12.4312   28.9737 C   0  0  0  0  0  0  0  0  0  0  0  0
    3.5017   11.7799   27.7965 O   0  0  0  0  0  0  0  0  0  0  0  0
    3.9962   12.4971   26.6782 C   0  0  0  0  0  0  0  0  0  0  0  0
  1  2  2  0
  2  3  1  0
  3  4  2  0
  4  5  1  0
  5  6  2  0
  6  7  1  0
  6  8  1  0
  8  9  2  0
  9 10  1  0
 10 11  1  0
 11 12  2  0
 13 11  1  1
 13 14  1  0
 14 15  1  0
 15 16  1  0
 16 17  1  0
 17 18  1  0
  9  3  1  0
 18 13  1  0
M  END
$$$$

     RDKit          3D

 17 17  0  0  0  0  0  0  0  0999 V2000
   12.9739   13.2424   23.2539 C   0  0  0  0  0  0  0  0  0  0  0  0
   11.7982   13.8260   22.5166 C   0  0  2  0  0  0  0  0  0  0  0  0
   11.9700   15.2720   22.4535 C   0  0  0  0  0  0  0  0  0  0  0  0
   12.0799   16.4266   22.4704 N   0  0  0  0  0  0  0  0  0  0  0  0
   10.6383   13.4790   23.4029 C   0  0  0  0  0  0  0  0  0  0  0  0
   10.3156   14.1384   24.3935 O   0  0  0  0  0  0  0  0  0  0  0  0
   10.0948   12.2451   23.0715 N   0  0  0  0  0  0  0  0  0  0  0  0
    9.0199   11.7716   23.7879 C   0  0  0  0  0  0  0  0  0  0  0  0
    8.0738   12.3978   24.5627 C   0  0  0  0  0  0  0  0  0  0  0  0
    7.3219   11.3793   25.1853 C   0  0  0  0  0  0  0  0  0  0  0  0
    6.2920   11.5050   26.2529 C   0  0  0  0  0  0  0  0  0  0  0  0
    6.9052   11.8253   27.4187 F   0  0  0  0  0  0  0  0  0  0  0  0
    5.3725   12.4724   26.0211 F   0  0  0  0  0  0  0  0  0  0  0  0
    5.6029   10.3575   26.4982 F   0  0  0  0  0  0  0  0  0  0  0  0
    7.7791   10.1859   24.8001 N   0  0  0  0  0  0  0  0  0  0  0  0
    8.7360   10.4588   23.9162 N   0  0  0  0  0  0  0  0  0  0  0  0
    9.3905    9.3490   23.2819 C   0  0  0  0  0  0  0  0  0  0  0  0
  2  1  1  1
  2  3  1  0
  3  4  3  0
  2  5  1  0
  5  6  2  0
  5  7  1  0
  7  8  1  0
  8  9  2  0
  9 10  1  0
 10 11  1  0
 11 12  1  0
 11 13  1  0
 11 14  1  0
 10 15  2  0
 15 16  1  0
 16 17  1  0
 16  8  1  0
M  END
$$$$

     RDKit          3D

 17 17  0  0  0  0  0  0  0  0999 V2000
   10.8385   14.0862   20.8896 C   0  0  0  0  0  0  0  0  0  0  0  0
   11.6656   13.9706   22.1512 C   0  0  1  0  0  0  0  0  0  0  0  0
   12.0228   15.3451   22.4835 C   0  0  0  0  0  0  0  0  0  0  0  0
   12.1566   16.4704   22.7275 N   0  0  0  0  0  0  0  0  0  0  0  0
   10.8177   13.4013   23.2777 C   0  0  0  0  0  0  0  0  0  0  0  0
   10.7382   13.9126   24.3995 O   0  0  0  0  0  0  0  0  0  0  0  0
   10.1828   12.2108   22.9521 N   0  0  0  0  0  0  0  0  0  0  0  0
    9.1318   11.7656   23.7274 C   0  0  0  0  0  0  0  0  0  0  0  0
    8.2237   12.4208   24.5262 C   0  0  0  0  0  0  0  0  0  0  0  0
    7.4263   11.4259   25.1385 C   0  0  0  0  0  0  0  0  0  0  0  0
    6.3914   11.5715   26.2016 C   0  0  0  0  0  0  0  0  0  0  0  0
    6.9964   11.9191   27.3636 F   0  0  0  0  0  0  0  0  0  0  0  0
    5.7052   10.4260   26.4702 F   0  0  0  0  0  0  0  0  0  0  0  0
    5.4675   12.5289   25.9464 F   0  0  0  0  0  0  0  0  0  0  0  0
    7.8315   10.2201   24.7367 N   0  0  0  0  0  0  0  0  0  0  0  0
    8.8060   10.4619   23.8617 N   0  0  0  0  0  0  0  0  0  0  0  0
    9.4263    9.3292   23.2328 C   0  0  0  0  0  0  0  0  0  0  0  0
  2  1  1  6
  2  3  1  0
  3  4  3  0
  2  5  1  0
  5  6  2  0
  5  7  1  0
  7  8  1  0
  8  9  2  0
  9 10  1  0
 10 11  1  0
 11 12  1  0
 11 13  1  0
 11 14  1  0
 10 15  2  0
 15 16  1  0
 16 17  1  0
 16  8  1  0
M  END
$$$$

     RDKit          3D

 18 19  0  0  0  0  0  0  0  0999 V2000
    9.8443    9.0263   23.1841 C   0  0  0  0  0  0  0  0  0  0  0  0
    9.0254   10.0814   23.8397 C   0  0  0  0  0  0  0  0  0  0  0  0
    7.9740    9.7548   24.6644 C   0  0  0  0  0  0  0  0  0  0  0  0
    7.1636   10.6582   25.2744 N   0  0  0  0  0  0  0  0  0  0  0  0
    7.4233   11.9628   25.0580 C   0  0  0  0  0  0  0  0  0  0  0  0
    6.3557   13.2858   25.8797 Br  0  0  0  0  0  0  0  0  0  0  0  0
    8.4746   12.3900   24.2970 C   0  0  0  0  0  0  0  0  0  0  0  0
    9.2989   11.4293   23.7228 C   0  0  0  0  0  0  0  0  0  0  0  0
   10.4562   11.8416   23.0761 N   0  0  0  0  0  0  0  0  0  0  0  0
   11.1467   12.9647   23.4884 C   0  0  0  0  0  0  0  0  0  0  0  0
   11.0642   13.4827   24.6023 O   0  0  0  0  0  0  0  0  0  0  0  0
   11.9497   13.5177   22.3638 C   0  0  2  0  0  0  0  0  0  0  0  0
   12.8682   14.5903   22.8956 C   0  0  0  0  0  0  0  0  0  0  0  0
   12.1886   15.9240   22.9480 C   0  0  0  0  0  0  0  0  0  0  0  0
   11.7661   16.3381   21.5708 C   0  0  0  0  0  0  0  0  0  0  0  0
   11.3324   15.2248   20.6413 C   0  0  2  0  0  0  0  0  0  0  0  0
   10.1860   15.6567   19.7550 C   0  0  0  0  0  0  0  0  0  0  0  0
   10.8998   14.0193   21.3960 C   0  0  0  0  0  0  0  0  0  0  0  0
  1  2  1  0
  2  3  2  0
  3  4  1  0
  4  5  2  0
  5  6  1  0
  5  7  1  0
  7  8  2  0
  8  9  1  0
  9 10  1  0
 10 11  2  0
 12 10  1  1
 12 13  1  0
 13 14  1  0
 14 15  1  0
 15 16  1  0
 16 17  1  1
 16 18  1  0
  8  2  1  0
 18 12  1  0
M  END
$$$$

     RDKit          3D

 18 19  0  0  0  0  0  0  0  0999 V2000
    9.4289   14.6699   24.9163 C   0  0  0  0  0  0  0  0  0  0  0  0
    8.9811   13.3347   24.4895 C   0  0  0  0  0  0  0  0  0  0  0  0
    9.8427   12.5892   23.7227 C   0  0  0  0  0  0  0  0  0  0  0  0
    9.6357   11.3031   23.5162 N   0  0  0  0  0  0  0  0  0  0  0  0
    8.5694   10.7576   24.1211 C   0  0  0  0  0  0  0  0  0  0  0  0
    8.5492    8.9288   24.0199 Br  0  0  0  0  0  0  0  0  0  0  0  0
    7.5842   11.4314   24.8221 C   0  0  0  0  0  0  0  0  0  0  0  0
    7.7960   12.7818   24.9726 C   0  0  0  0  0  0  0  0  0  0  0  0
    6.9118   13.6740   25.5722 N   0  0  0  0  0  0  0  0  0  0  0  0
    5.7289   13.5497   26.2357 C   0  0  0  0  0  0  0  0  0  0  0  0
    5.0503   14.5461   26.4972 O   0  0  0  0  0  0  0  0  0  0  0  0
    5.3578   12.1861   26.7543 C   0  0  1  0  0  0  0  0  0  0  0  0
    6.1253   11.8649   28.0234 C   0  0  0  0  0  0  0  0  0  0  0  0
    5.5838   12.5798   29.2466 C   0  0  0  0  0  0  0  0  0  0  0  0
    4.0907   12.3821   29.4033 C   0  0  0  0  0  0  0  0  0  0  0  0
    3.3597   12.8461   28.1694 C   0  0  2  0  0  0  0  0  0  0  0  0
    1.8758   12.6235   28.3112 C   0  0  0  0  0  0  0  0  0  0  0  0
    3.8638   12.0915   26.9670 C   0  0  0  0  0  0  0  0  0  0  0  0
  1  2  1  0
  2  3  2  0
  3  4  1  0
  4  5  2  0
  5  6  1  0
  5  7  1  0
  7  8  2  0
  8  9  1  0
  9 10  1  0
 10 11  2  0
 12 10  1  1
 12 13  1  0
 13 14  1  0
 14 15  1  0
 15 16  1  0
 16 17  1  1
 16 18  1  0
  8  2  1  0
 18 12  1  0
M  END
$$$$

     RDKit          3D

 18 19  0  0  0  0  0  0  0  0999 V2000
    9.9635    9.1332   23.0957 C   0  0  0  0  0  0  0  0  0  0  0  0
    9.1155   10.1686   23.7467 C   0  0  0  0  0  0  0  0  0  0  0  0
    8.0843    9.7962   24.5818 C   0  0  0  0  0  0  0  0  0  0  0  0
    7.2515   10.6648   25.2108 N   0  0  0  0  0  0  0  0  0  0  0  0
    7.4614   11.9789   24.9972 C   0  0  0  0  0  0  0  0  0  0  0  0
    6.3701   13.2585   25.8568 Br  0  0  0  0  0  0  0  0  0  0  0  0
    8.4803   12.4490   24.2156 C   0  0  0  0  0  0  0  0  0  0  0  0
    9.3375   11.5292   23.6220 C   0  0  0  0  0  0  0  0  0  0  0  0
   10.4805   11.9967   22.9736 N   0  0  0  0  0  0  0  0  0  0  0  0
   11.1335   13.1386   23.3955 C   0  0  0  0  0  0  0  0  0  0  0  0
   10.9178   13.7160   24.4644 O   0  0  0  0  0  0  0  0  0  0  0  0
   12.1839   13.5814   22.4211 C   0  0  2  0  0  0  0  0  0  0  0  0
   12.9754   14.7248   23.0074 C   0  0  0  0  0  0  0  0  0  0  0  0
   12.2177   16.0235   22.9789 C   0  0  0  0  0  0  0  0  0  0  0  0
   11.7493   16.2960   21.5806 C   0  0  0  0  0  0  0  0  0  0  0  0
   10.7969   15.2143   21.1369 C   0  0  1  0  0  0  0  0  0  0  0  0
   10.1778   15.5078   19.7946 C   0  0  0  0  0  0  0  0  0  0  0  0
   11.5821   13.9374   21.0794 C   0  0  0  0  0  0  0  0  0  0  0  0
  1  2  1  0
  2  3  2  0
  3  4  1  0
  4  5  2  0
  5  6  1  0
  5  7  1  0
  7  8  2  0
  8  9  1  0
  9 10  1  0
 10 11  2  0
 12 10  1  1
 12 13  1  0
 13 14  1  0
 14 15  1  0
 15 16  1  0
 16 17  1  6
 16 18  1  0
  8  2  1  0
 18 12  1  0
M  END
$$$$

     RDKit          3D

 18 19  0  0  0  0  0  0  0  0999 V2000
    9.3792   14.6791   24.9289 C   0  0  0  0  0  0  0  0  0  0  0  0
    8.9466   13.3384   24.5027 C   0  0  0  0  0  0  0  0  0  0  0  0
    9.8116   12.6053   23.7274 C   0  0  0  0  0  0  0  0  0  0  0  0
    9.6179   11.3176   23.5175 N   0  0  0  0  0  0  0  0  0  0  0  0
    8.5612   10.7579   24.1264 C   0  0  0  0  0  0  0  0  0  0  0  0
    8.5576    8.9291   24.0129 Br  0  0  0  0  0  0  0  0  0  0  0  0
    7.5743   11.4179   24.8386 C   0  0  0  0  0  0  0  0  0  0  0  0
    7.7725   12.7698   24.9949 C   0  0  0  0  0  0  0  0  0  0  0  0
    6.8927   13.6477   25.6216 N   0  0  0  0  0  0  0  0  0  0  0  0
    5.7178   13.5153   26.2964 C   0  0  0  0  0  0  0  0  0  0  0  0
    5.0658   14.5111   26.6232 O   0  0  0  0  0  0  0  0  0  0  0  0
    5.3099   12.1377   26.7417 C   0  0  1  0  0  0  0  0  0  0  0  0
    6.0947   11.7467   27.9812 C   0  0  0  0  0  0  0  0  0  0  0  0
    5.6130   12.4213   29.2509 C   0  0  0  0  0  0  0  0  0  0  0  0
    4.1066   12.5037   29.3862 C   0  0  0  0  0  0  0  0  0  0  0  0
    3.3787   11.7025   28.3370 C   0  0  1  0  0  0  0  0  0  0  0  0
    1.8902   11.9106   28.4669 C   0  0  0  0  0  0  0  0  0  0  0  0
    3.8132   12.1543   26.9698 C   0  0  0  0  0  0  0  0  0  0  0  0
  1  2  1  0
  2  3  2  0
  3  4  1  0
  4  5  2  0
  5  6  1  0
  5  7  1  0
  7  8  2  0
  8  9  1  0
  9 10  1  0
 10 11  2  0
 12 10  1  1
 12 13  1  0
 13 14  1  0
 14 15  1  0
 15 16  1  0
 16 17  1  6
 16 18  1  0
  8  2  1  0
 18 12  1  0
M  END
$$$$

     RDKit          3D

 18 19  0  0  0  0  0  0  0  0999 V2000
    9.8443    9.0263   23.1841 C   0  0  0  0  0  0  0  0  0  0  0  0
    9.0254   10.0814   23.8397 C   0  0  0  0  0  0  0  0  0  0  0  0
    7.9740    9.7548   24.6644 C   0  0  0  0  0  0  0  0  0  0  0  0
    7.1636   10.6582   25.2744 N   0  0  0  0  0  0  0  0  0  0  0  0
    7.4233   11.9628   25.0580 C   0  0  0  0  0  0  0  0  0  0  0  0
    6.3557   13.2858   25.8797 Br  0  0  0  0  0  0  0  0  0  0  0  0
    8.4746   12.3900   24.2970 C   0  0  0  0  0  0  0  0  0  0  0  0
    9.2989   11.4293   23.7228 C   0  0  0  0  0  0  0  0  0  0  0  0
   10.4562   11.8416   23.0761 N   0  0  0  0  0  0  0  0  0  0  0  0
   11.1467   12.9647   23.4884 C   0  0  0  0  0  0  0  0  0  0  0  0
   11.0642   13.4827   24.6023 O   0  0  0  0  0  0  0  0  0  0  0  0
   11.9497   13.5177   22.3638 C   0  0  2  0  0  0  0  0  0  0  0  0
   12.8682   14.5903   22.8956 C   0  0  0  0  0  0  0  0  0  0  0  0
   12.1886   15.9240   22.9480 C   0  0  0  0  0  0  0  0  0  0  0  0
   11.7661   16.3381   21.5708 C   0  0  0  0  0  0  0  0  0  0  0  0
   11.3324   15.2248   20.6413 C   0  0  2  0  0  0  0  0  0  0  0  0
   10.1860   15.6567   19.7550 C   0  0  0  0  0  0  0  0  0  0  0  0
   10.8998   14.0193   21.3960 C   0  0  0  0  0  0  0  0  0  0  0  0
  1  2  1  0
  2  3  2  0
  3  4  1  0
  4  5  2  0
  5  6  1  0
  5  7  1  0
  7  8  2  0
  8  9  1  0
  9 10  1  0
 10 11  2  0
 12 10  1  1
 12 13  1  0
 13 14  1  0
 14 15  1  0
 15 16  1  0
 16 17  1  1
 16 18  1  0
  8  2  1  0
 18 12  1  0
M  END
$$$$

     RDKit          3D

 18 19  0  0  0  0  0  0  0  0999 V2000
    9.4289   14.6699   24.9163 C   0  0  0  0  0  0  0  0  0  0  0  0
    8.9811   13.3347   24.4895 C   0  0  0  0  0  0  0  0  0  0  0  0
    9.8427   12.5892   23.7227 C   0  0  0  0  0  0  0  0  0  0  0  0
    9.6357   11.3031   23.5162 N   0  0  0  0  0  0  0  0  0  0  0  0
    8.5694   10.7576   24.1211 C   0  0  0  0  0  0  0  0  0  0  0  0
    8.5492    8.9288   24.0199 Br  0  0  0  0  0  0  0  0  0  0  0  0
    7.5842   11.4314   24.8221 C   0  0  0  0  0  0  0  0  0  0  0  0
    7.7960   12.7818   24.9726 C   0  0  0  0  0  0  0  0  0  0  0  0
    6.9118   13.6740   25.5722 N   0  0  0  0  0  0  0  0  0  0  0  0
    5.7289   13.5497   26.2357 C   0  0  0  0  0  0  0  0  0  0  0  0
    5.0503   14.5461   26.4972 O   0  0  0  0  0  0  0  0  0  0  0  0
    5.3578   12.1861   26.7543 C   0  0  1  0  0  0  0  0  0  0  0  0
    6.1253   11.8649   28.0234 C   0  0  0  0  0  0  0  0  0  0  0  0
    5.5838   12.5798   29.2466 C   0  0  0  0  0  0  0  0  0  0  0  0
    4.0907   12.3821   29.4033 C   0  0  0  0  0  0  0  0  0  0  0  0
    3.3597   12.8461   28.1694 C   0  0  2  0  0  0  0  0  0  0  0  0
    1.8758   12.6235   28.3112 C   0  0  0  0  0  0  0  0  0  0  0  0
    3.8638   12.0915   26.9670 C   0  0  0  0  0  0  0  0  0  0  0  0
  1  2  1  0
  2  3  2  0
  3  4  1  0
  4  5  2  0
  5  6  1  0
  5  7  1  0
  7  8  2  0
  8  9  1  0
  9 10  1  0
 10 11  2  0
 12 10  1  1
 12 13  1  0
 13 14  1  0
 14 15  1  0
 15 16  1  0
 16 17  1  1
 16 18  1  0
  8  2  1  0
 18 12  1  0
M  END
$$$$

     RDKit          3D

 18 19  0  0  0  0  0  0  0  0999 V2000
    9.9635    9.1332   23.0957 C   0  0  0  0  0  0  0  0  0  0  0  0
    9.1155   10.1686   23.7467 C   0  0  0  0  0  0  0  0  0  0  0  0
    8.0843    9.7962   24.5818 C   0  0  0  0  0  0  0  0  0  0  0  0
    7.2515   10.6648   25.2108 N   0  0  0  0  0  0  0  0  0  0  0  0
    7.4614   11.9789   24.9972 C   0  0  0  0  0  0  0  0  0  0  0  0
    6.3701   13.2585   25.8568 Br  0  0  0  0  0  0  0  0  0  0  0  0
    8.4803   12.4490   24.2156 C   0  0  0  0  0  0  0  0  0  0  0  0
    9.3375   11.5292   23.6220 C   0  0  0  0  0  0  0  0  0  0  0  0
   10.4805   11.9967   22.9736 N   0  0  0  0  0  0  0  0  0  0  0  0
   11.1335   13.1386   23.3955 C   0  0  0  0  0  0  0  0  0  0  0  0
   10.9178   13.7160   24.4644 O   0  0  0  0  0  0  0  0  0  0  0  0
   12.1839   13.5814   22.4211 C   0  0  2  0  0  0  0  0  0  0  0  0
   12.9754   14.7248   23.0074 C   0  0  0  0  0  0  0  0  0  0  0  0
   12.2177   16.0235   22.9789 C   0  0  0  0  0  0  0  0  0  0  0  0
   11.7493   16.2960   21.5806 C   0  0  0  0  0  0  0  0  0  0  0  0
   10.7969   15.2143   21.1369 C   0  0  1  0  0  0  0  0  0  0  0  0
   10.1778   15.5078   19.7946 C   0  0  0  0  0  0  0  0  0  0  0  0
   11.5821   13.9374   21.0794 C   0  0  0  0  0  0  0  0  0  0  0  0
  1  2  1  0
  2  3  2  0
  3  4  1  0
  4  5  2  0
  5  6  1  0
  5  7  1  0
  7  8  2  0
  8  9  1  0
  9 10  1  0
 10 11  2  0
 12 10  1  1
 12 13  1  0
 13 14  1  0
 14 15  1  0
 15 16  1  0
 16 17  1  6
 16 18  1  0
  8  2  1  0
 18 12  1  0
M  END
$$$$

     RDKit          3D

 18 19  0  0  0  0  0  0  0  0999 V2000
    9.3792   14.6791   24.9289 C   0  0  0  0  0  0  0  0  0  0  0  0
    8.9466   13.3384   24.5027 C   0  0  0  0  0  0  0  0  0  0  0  0
    9.8116   12.6053   23.7274 C   0  0  0  0  0  0  0  0  0  0  0  0
    9.6179   11.3176   23.5175 N   0  0  0  0  0  0  0  0  0  0  0  0
    8.5612   10.7579   24.1264 C   0  0  0  0  0  0  0  0  0  0  0  0
    8.5576    8.9291   24.0129 Br  0  0  0  0  0  0  0  0  0  0  0  0
    7.5743   11.4179   24.8386 C   0  0  0  0  0  0  0  0  0  0  0  0
    7.7725   12.7698   24.9949 C   0  0  0  0  0  0  0  0  0  0  0  0
    6.8927   13.6477   25.6216 N   0  0  0  0  0  0  0  0  0  0  0  0
    5.7178   13.5153   26.2964 C   0  0  0  0  0  0  0  0  0  0  0  0
    5.0658   14.5111   26.6232 O   0  0  0  0  0  0  0  0  0  0  0  0
    5.3099   12.1377   26.7417 C   0  0  1  0  0  0  0  0  0  0  0  0
    6.0947   11.7467   27.9812 C   0  0  0  0  0  0  0  0  0  0  0  0
    5.6130   12.4213   29.2509 C   0  0  0  0  0  0  0  0  0  0  0  0
    4.1066   12.5037   29.3862 C   0  0  0  0  0  0  0  0  0  0  0  0
    3.3787   11.7025   28.3370 C   0  0  1  0  0  0  0  0  0  0  0  0
    1.8902   11.9106   28.4669 C   0  0  0  0  0  0  0  0  0  0  0  0
    3.8132   12.1543   26.9698 C   0  0  0  0  0  0  0  0  0  0  0  0
  1  2  1  0
  2  3  2  0
  3  4  1  0
  4  5  2  0
  5  6  1  0
  5  7  1  0
  7  8  2  0
  8  9  1  0
  9 10  1  0
 10 11  2  0
 12 10  1  1
 12 13  1  0
 13 14  1  0
 14 15  1  0
 15 16  1  0
 16 17  1  6
 16 18  1  0
  8  2  1  0
 18 12  1  0
M  END
$$$$

     RDKit          3D

 23 23  0  0  0  0  0  0  0  0999 V2000
    5.4059   12.4029   25.9536 C   0  0  0  0  0  0  0  0  0  0  0  0
    6.2411   11.1691   26.1973 C   0  0  0  0  0  0  0  0  0  0  0  0
    6.6172   11.1796   27.6513 C   0  0  0  0  0  0  0  0  0  0  0  0
    5.3532    9.9595   26.0723 C   0  0  0  0  0  0  0  0  0  0  0  0
    7.4149   11.0887   25.2818 C   0  0  0  0  0  0  0  0  0  0  0  0
    8.1799   12.1116   24.6823 C   0  0  0  0  0  0  0  0  0  0  0  0
    9.1204   11.4836   23.8825 C   0  0  0  0  0  0  0  0  0  0  0  0
   10.1465   12.0431   23.1250 N   0  0  0  0  0  0  0  0  0  0  0  0
   10.6446   13.3215   23.4447 C   0  0  0  0  0  0  0  0  0  0  0  0
   10.3719   13.9013   24.4999 O   0  0  0  0  0  0  0  0  0  0  0  0
   11.4974   13.9732   22.3647 C   0  0  1  0  0  0  0  0  0  0  0  0
   12.4521   13.0027   21.7764 C   0  0  0  0  0  0  0  0  0  0  0  0
   10.6417   14.4312   21.3314 O   0  0  0  0  0  0  0  0  0  0  0  0
   12.3640   15.0749   22.9293 C   0  0  0  0  0  0  0  0  0  0  0  0
   13.1579   14.5877   23.9148 F   0  0  0  0  0  0  0  0  0  0  0  0
   11.6698   16.1125   23.4293 F   0  0  0  0  0  0  0  0  0  0  0  0
   13.1747   15.5943   21.9784 F   0  0  0  0  0  0  0  0  0  0  0  0
    8.8244   10.1483   23.9953 N   0  0  0  0  0  0  0  0  0  0  0  0
    9.2157    8.9515   23.2991 C   0  0  0  0  0  0  0  0  0  0  0  0
   10.5418    8.9564   22.7198 C   0  0  0  0  0  0  0  0  0  0  0  0
   10.7196    9.2379   21.5487 O   0  0  0  0  0  0  0  0  0  0  0  0
   11.4880    8.5777   23.5857 O   0  0  0  0  0  0  0  0  0  0  0  0
    7.8658    9.8963   24.9006 N   0  0  0  0  0  0  0  0  0  0  0  0
  1  2  1  0
  2  3  1  0
  2  4  1  0
  2  5  1  0
  5  6  1  0
  6  7  2  0
  7  8  1  0
  8  9  1  0
  9 10  2  0
  9 11  1  0
 11 12  1  6
 11 13  1  0
 11 14  1  0
 14 15  1  0
 14 16  1  0
 14 17  1  0
  7 18  1  0
 18 19  1  0
 19 20  1  0
 20 21  2  0
 20 22  1  0
 18 23  1  0
 23  5  2  0
M  END
$$$$

     RDKit          3D

 25 26  0  0  0  0  0  0  0  0999 V2000
    5.3620   12.2148   25.7778 C   0  0  0  0  0  0  0  0  0  0  0  0
    6.4508   11.2552   26.1967 C   0  0  0  0  0  0  0  0  0  0  0  0
    5.7944    9.9471   26.5489 C   0  0  0  0  0  0  0  0  0  0  0  0
    6.9863   11.8467   27.4798 C   0  0  0  0  0  0  0  0  0  0  0  0
    7.5357   11.1522   25.1719 C   0  0  0  0  0  0  0  0  0  0  0  0
    8.2266   12.2477   24.6193 C   0  0  0  0  0  0  0  0  0  0  0  0
    9.2091   11.7100   23.8331 C   0  0  0  0  0  0  0  0  0  0  0  0
   10.2414   12.3035   23.1610 N   0  0  0  0  0  0  0  0  0  0  0  0
   10.6864   13.5857   23.4672 C   0  0  0  0  0  0  0  0  0  0  0  0
   10.1881   14.3002   24.3349 O   0  0  0  0  0  0  0  0  0  0  0  0
   11.9132   13.9370   22.6523 C   0  0  1  0  0  0  0  0  0  0  0  0
   12.8978   12.9425   23.0842 N   0  0  0  0  0  0  0  0  0  0  0  0
   11.6434   13.7859   21.2031 C   0  0  0  0  0  0  0  0  0  0  0  0
   10.8197   14.7747   20.4322 C   0  0  0  0  0  0  0  0  0  0  0  0
   12.2767   14.5853   20.1120 C   0  0  0  0  0  0  0  0  0  0  0  0
   12.4747   15.2600   23.0743 C   0  0  0  0  0  0  0  0  0  0  0  0
   13.5919   15.5561   22.3778 F   0  0  0  0  0  0  0  0  0  0  0  0
   11.6444   16.3032   22.9014 F   0  0  0  0  0  0  0  0  0  0  0  0
   12.8053   15.2051   24.3850 F   0  0  0  0  0  0  0  0  0  0  0  0
    9.0365   10.3505   23.8627 N   0  0  0  0  0  0  0  0  0  0  0  0
    9.7308    9.3616   23.0663 C   0  0  0  0  0  0  0  0  0  0  0  0
    8.7950    8.3107   22.6260 C   0  0  0  0  0  0  0  0  0  0  0  0
   10.9723    8.7729   23.6392 C   0  0  0  0  0  0  0  0  0  0  0  0
   10.2341    9.8786   21.7820 C   0  0  0  0  0  0  0  0  0  0  0  0
    8.0284    9.9899   24.7147 N   0  0  0  0  0  0  0  0  0  0  0  0
  1  2  1  0
  2  3  1  0
  2  4  1  0
  2  5  1  0
  5  6  1  0
  6  7  2  0
  7  8  1  0
  8  9  1  0
  9 10  2  0
  9 11  1  0
 11 12  1  1
 11 13  1  0
 13 14  1  0
 14 15  1  0
 11 16  1  0
 16 17  1  0
 16 18  1  0
 16 19  1  0
  7 20  1  0
 20 21  1  0
 21 22  1  0
 21 23  1  0
 21 24  1  0
 20 25  1  0
 25  5  2  0
 15 13  1  0
M  END
$$$$

     RDKit          3D

 21 21  0  0  0  0  0  0  0  0999 V2000
    4.9600    9.8924   27.5868 C   0  0  0  0  0  0  0  0  0  0  0  0
    6.3479   10.2389   27.1097 C   0  0  0  0  0  0  0  0  0  0  0  0
    6.3103   10.8558   25.7395 C   0  0  0  0  0  0  0  0  0  0  0  0
    7.5742   10.7766   24.9782 C   0  0  0  0  0  0  0  0  0  0  0  0
    8.3115   11.8572   24.4597 C   0  0  0  0  0  0  0  0  0  0  0  0
    9.3028   11.2888   23.6898 C   0  0  0  0  0  0  0  0  0  0  0  0
   10.3240   11.8403   22.9495 N   0  0  0  0  0  0  0  0  0  0  0  0
   10.5457   13.2032   22.9698 C   0  0  0  0  0  0  0  0  0  0  0  0
    9.8965   14.0093   23.6313 O   0  0  0  0  0  0  0  0  0  0  0  0
   11.6954   13.5901   22.0997 C   0  0  2  0  0  0  0  0  0  0  0  0
   12.7420   14.4120   22.8115 C   0  0  0  0  0  0  0  0  0  0  0  0
   12.1741   15.5695   23.5924 C   0  0  0  0  0  0  0  0  0  0  0  0
   12.2770   15.2362   25.0644 C   0  0  0  0  0  0  0  0  0  0  0  0
   11.0990   15.7003   25.7681 N   0  0  0  0  0  0  0  0  0  0  0  0
   11.2140   14.2199   20.8299 C   0  0  0  0  0  0  0  0  0  0  0  0
   11.3448   15.5595   20.8719 F   0  0  0  0  0  0  0  0  0  0  0  0
    9.9035   13.9690   20.5902 F   0  0  0  0  0  0  0  0  0  0  0  0
   11.9158   13.7964   19.7667 F   0  0  0  0  0  0  0  0  0  0  0  0
    9.1153    9.9429   23.7864 N   0  0  0  0  0  0  0  0  0  0  0  0
    9.9037    8.9119   23.1412 C   0  0  0  0  0  0  0  0  0  0  0  0
    8.0664    9.6045   24.5625 N   0  0  0  0  0  0  0  0  0  0  0  0
  1  2  1  0
  2  3  1  0
  3  4  1  0
  4  5  1  0
  5  6  2  0
  6  7  1  0
  7  8  1  0
  8  9  2  0
  8 10  1  0
 10 11  1  1
 11 12  1  0
 12 13  1  0
 13 14  1  0
 10 15  1  0
 15 16  1  0
 15 17  1  0
 15 18  1  0
  6 19  1  0
 19 20  1  0
 19 21  1  0
 21  4  2  0
M  END
$$$$

     RDKit          3D

 21 21  0  0  0  0  0  0  0  0999 V2000
    4.9563    9.7424   27.8923 C   0  0  0  0  0  0  0  0  0  0  0  0
    6.2393   10.2982   27.3263 C   0  0  0  0  0  0  0  0  0  0  0  0
    6.1097   10.4616   25.8402 C   0  0  0  0  0  0  0  0  0  0  0  0
    7.3790   10.6407   25.1168 C   0  0  0  0  0  0  0  0  0  0  0  0
    7.9961   11.8506   24.7657 C   0  0  0  0  0  0  0  0  0  0  0  0
    9.0620   11.4875   23.9770 C   0  0  0  0  0  0  0  0  0  0  0  0
   10.0709   12.2411   23.4443 N   0  0  0  0  0  0  0  0  0  0  0  0
   10.4049   13.4662   24.0029 C   0  0  0  0  0  0  0  0  0  0  0  0
    9.8768   14.0401   24.9518 O   0  0  0  0  0  0  0  0  0  0  0  0
   11.5760   14.0453   23.3345 C   0  0  1  0  0  0  0  0  0  0  0  0
   11.8678   15.4963   23.5003 C   0  0  0  0  0  0  0  0  0  0  0  0
   11.9985   16.1730   22.1634 C   0  0  0  0  0  0  0  0  0  0  0  0
   11.2531   15.4887   21.0359 C   0  0  0  0  0  0  0  0  0  0  0  0
    9.8714   15.1636   21.3456 N   0  0  0  0  0  0  0  0  0  0  0  0
   12.7675   13.2078   23.3527 C   0  0  0  0  0  0  0  0  0  0  0  0
   13.7674   13.7341   24.0844 F   0  0  0  0  0  0  0  0  0  0  0  0
   13.1470   13.1074   22.0778 F   0  0  0  0  0  0  0  0  0  0  0  0
   12.5577   11.9816   23.8431 F   0  0  0  0  0  0  0  0  0  0  0  0
    9.0056   10.1284   23.8609 N   0  0  0  0  0  0  0  0  0  0  0  0
    9.9109    9.2523   23.1398 C   0  0  0  0  0  0  0  0  0  0  0  0
    8.0047    9.5906   24.5778 N   0  0  0  0  0  0  0  0  0  0  0  0
  1  2  1  0
  2  3  1  0
  3  4  1  0
  4  5  1  0
  5  6  2  0
  6  7  1  0
  7  8  1  0
  8  9  2  0
  8 10  1  0
 10 11  1  1
 11 12  1  0
 12 13  1  0
 13 14  1  0
 10 15  1  0
 15 16  1  0
 15 17  1  0
 15 18  1  0
  6 19  1  0
 19 20  1  0
 19 21  1  0
 21  4  2  0
M  END
$$$$

     RDKit          3D

 26 28  0  0  0  0  0  0  0  0999 V2000
    4.0082   14.2841   24.9366 C   0  0  0  0  0  0  0  0  0  0  0  0
    5.4004   14.4690   24.6086 N   0  0  0  0  0  0  0  0  0  0  0  0
    6.4185   14.5319   25.5009 C   0  0  0  0  0  0  0  0  0  0  0  0
    7.5374   14.2776   24.7506 C   0  0  0  0  0  0  0  0  0  0  0  0
    8.7691   14.0135   25.2861 N   0  0  0  0  0  0  0  0  0  0  0  0
    9.6198   13.0562   24.7876 C   0  0  0  0  0  0  0  0  0  0  0  0
   10.8336   13.2420   24.7498 O   0  0  0  0  0  0  0  0  0  0  0  0
    9.0153   11.7412   24.4228 C   0  0  0  0  0  0  0  0  0  0  0  0
    9.6972   11.0222   23.4131 C   0  0  0  0  0  0  0  0  0  0  0  0
   10.1744   10.3717   22.5885 N   0  0  0  0  0  0  0  0  0  0  0  0
    7.9797   11.0986   24.9865 C   0  0  0  0  0  0  0  0  0  0  0  0
    6.9601   11.0935   26.0261 C   0  0  0  0  0  0  0  0  0  0  0  0
    6.9522   11.8806   27.1831 C   0  0  0  0  0  0  0  0  0  0  0  0
    6.0672   11.6266   28.2510 C   0  0  0  0  0  0  0  0  0  0  0  0
    5.1929   10.5663   28.1402 C   0  0  0  0  0  0  0  0  0  0  0  0
    5.1485    9.8229   26.9957 C   0  0  0  0  0  0  0  0  0  0  0  0
    6.0119   10.0721   25.9391 C   0  0  0  0  0  0  0  0  0  0  0  0
    4.1719    8.8728   27.0424 O   0  0  0  0  0  0  0  0  0  0  0  0
    3.8769    8.8999   28.4522 C   0  0  0  0  0  0  0  0  0  0  0  0
    4.2831   10.1470   29.0595 O   0  0  0  0  0  0  0  0  0  0  0  0
    7.1205   14.2974   23.3988 C   0  0  0  0  0  0  0  0  0  0  0  0
    7.9777   14.0165   22.2051 C   0  0  0  0  0  0  0  0  0  0  0  0
    7.8753   12.6817   22.0292 F   0  0  0  0  0  0  0  0  0  0  0  0
    9.2882   14.2515   22.4599 F   0  0  0  0  0  0  0  0  0  0  0  0
    7.4862   14.8608   20.7536 Cl  0  0  0  0  0  0  0  0  0  0  0  0
    5.7885   14.4725   23.3318 N   0  0  0  0  0  0  0  0  0  0  0  0
  1  2  1  0
  2  3  1  0
  3  4  2  0
  4  5  1  0
  5  6  1  0
  6  7  2  0
  6  8  1  0
  8  9  1  0
  9 10  3  0
  8 11  2  0
 11 12  1  0
 12 13  2  0
 13 14  1  0
 14 15  2  0
 15 16  1  0
 16 17  2  0
 16 18  1  0
 18 19  1  0
 19 20  1  0
  4 21  1  0
 21 22  1  0
 22 23  1  0
 22 24  1  0
 22 25  1  0
 21 26  2  0
 26  2  1  0
 17 12  1  0
 20 15  1  0
M  END
$$$$

     RDKit          3D

 22 23  0  0  0  0  0  0  0  0999 V2000
    9.3226    8.3262   21.9880 C   0  0  0  0  0  0  0  0  0  0  0  0
   10.1046    9.3430   22.7420 C   0  0  0  0  0  0  0  0  0  0  0  0
   11.1626    8.5930   23.4809 C   0  0  0  0  0  0  0  0  0  0  0  0
    9.2851   10.1800   23.5866 N   0  0  0  0  0  0  0  0  0  0  0  0
    8.3235    9.6592   24.4055 N   0  0  0  0  0  0  0  0  0  0  0  0
    7.7596   10.7464   24.9036 C   0  0  0  0  0  0  0  0  0  0  0  0
    8.3268   11.9303   24.4658 C   0  0  0  0  0  0  0  0  0  0  0  0
    9.3581   11.5633   23.6523 C   0  0  0  0  0  0  0  0  0  0  0  0
   10.3254   12.2591   22.9790 N   0  0  0  0  0  0  0  0  0  0  0  0
   10.7582   13.5390   23.3177 C   0  0  0  0  0  0  0  0  0  0  0  0
   10.4059   14.1575   24.3248 O   0  0  0  0  0  0  0  0  0  0  0  0
   11.8094   14.0422   22.3541 C   0  0  2  0  0  0  0  0  0  0  0  0
   12.7671   12.9956   22.4171 O   0  0  0  0  0  0  0  0  0  0  0  0
   12.6169   15.2133   22.8336 C   0  0  0  0  0  0  0  0  0  0  0  0
   11.9080   16.4221   22.9538 O   0  0  0  0  0  0  0  0  0  0  0  0
   11.2331   14.2665   20.9756 C   0  0  0  0  0  0  0  0  0  0  0  0
   12.0745   13.9328   19.9856 F   0  0  0  0  0  0  0  0  0  0  0  0
   10.9330   15.5620   20.7832 F   0  0  0  0  0  0  0  0  0  0  0  0
   10.0408   13.6560   20.7880 F   0  0  0  0  0  0  0  0  0  0  0  0
    7.6504   13.1130   25.0055 C   0  0  0  0  0  0  0  0  0  0  0  0
    6.5145   12.4862   25.8768 C   0  0  0  0  0  0  0  0  0  0  0  0
    6.6197   10.9295   25.8096 C   0  0  0  0  0  0  0  0  0  0  0  0
  1  2  1  0
  2  3  1  0
  2  4  1  0
  4  5  1  0
  5  6  2  0
  6  7  1  0
  7  8  2  0
  8  9  1  0
  9 10  1  0
 10 11  2  0
 10 12  1  0
 12 13  1  6
 12 14  1  0
 14 15  1  0
 12 16  1  0
 16 17  1  0
 16 18  1  0
 16 19  1  0
  7 20  1  0
 20 21  1  0
 21 22  1  0
  8  4  1  0
 22  6  1  0
M  END
$$$$

     RDKit          3D

 22 23  0  0  0  0  0  0  0  0999 V2000
    8.9792    8.2778   22.3630 C   0  0  0  0  0  0  0  0  0  0  0  0
    9.8744    9.1885   23.1277 C   0  0  0  0  0  0  0  0  0  0  0  0
   10.6057    9.7657   21.9789 C   0  0  0  0  0  0  0  0  0  0  0  0
    9.0723   10.1914   23.8069 N   0  0  0  0  0  0  0  0  0  0  0  0
    8.0854    9.7492   24.6397 N   0  0  0  0  0  0  0  0  0  0  0  0
    7.5170   10.8671   25.0354 C   0  0  0  0  0  0  0  0  0  0  0  0
    8.1097   12.0062   24.5304 C   0  0  0  0  0  0  0  0  0  0  0  0
    9.1844   11.5795   23.7971 C   0  0  0  0  0  0  0  0  0  0  0  0
   10.2226   12.2533   23.1842 N   0  0  0  0  0  0  0  0  0  0  0  0
   10.5192   13.5740   23.4777 C   0  0  0  0  0  0  0  0  0  0  0  0
    9.8871   14.2778   24.2723 O   0  0  0  0  0  0  0  0  0  0  0  0
   11.8184   14.0693   22.8888 C   0  0  1  0  0  0  0  0  0  0  0  0
   11.9976   13.7605   21.5368 O   0  0  0  0  0  0  0  0  0  0  0  0
   11.9685   15.5471   23.1589 C   0  0  0  0  0  0  0  0  0  0  0  0
   11.9597   16.3734   22.0243 O   0  0  0  0  0  0  0  0  0  0  0  0
   12.8472   13.4905   23.8062 C   0  0  0  0  0  0  0  0  0  0  0  0
   12.5274   13.7110   25.1038 F   0  0  0  0  0  0  0  0  0  0  0  0
   13.0291   12.1726   23.6972 F   0  0  0  0  0  0  0  0  0  0  0  0
   14.0353   14.0888   23.6642 F   0  0  0  0  0  0  0  0  0  0  0  0
    7.4334   13.2239   24.9893 C   0  0  0  0  0  0  0  0  0  0  0  0
    6.2980   12.6674   25.9041 C   0  0  0  0  0  0  0  0  0  0  0  0
    6.3719   11.1110   25.9142 C   0  0  0  0  0  0  0  0  0  0  0  0
  1  2  1  0
  2  3  1  0
  2  4  1  0
  4  5  1  0
  5  6  2  0
  6  7  1  0
  7  8  2  0
  8  9  1  0
  9 10  1  0
 10 11  2  0
 10 12  1  0
 12 13  1  6
 12 14  1  0
 14 15  1  0
 12 16  1  0
 16 17  1  0
 16 18  1  0
 16 19  1  0
  7 20  1  0
 20 21  1  0
 21 22  1  0
  8  4  1  0
 22  6  1  0
M  END
$$$$

     RDKit          3D

 26 27  0  0  0  0  0  0  0  0999 V2000
    2.5023    7.3852   28.6480 C   0  0  0  0  0  0  0  0  0  0  0  0
    3.7478    8.0990   28.1731 C   0  0  0  0  0  0  0  0  0  0  0  0
    3.7991    9.3659   28.8294 O   0  0  0  0  0  0  0  0  0  0  0  0
    4.7481   10.1805   28.2755 C   0  0  0  0  0  0  0  0  0  0  0  0
    5.2724   10.0313   26.9957 C   0  0  0  0  0  0  0  0  0  0  0  0
    6.1754   10.9715   26.4809 C   0  0  0  0  0  0  0  0  0  0  0  0
    6.5632   12.0826   27.2355 C   0  0  0  0  0  0  0  0  0  0  0  0
    7.5918   12.9573   26.6941 C   0  0  0  0  0  0  0  0  0  0  0  0
    8.0664   14.2001   26.8916 C   0  0  0  0  0  0  0  0  0  0  0  0
    7.5120   15.1427   27.7785 C   0  0  0  0  0  0  0  0  0  0  0  0
    7.0742   15.9958   28.4298 N   0  0  0  0  0  0  0  0  0  0  0  0
    9.2365   14.7173   26.1015 C   0  0  0  0  0  0  0  0  0  0  0  0
    9.8481   15.7264   26.4588 O   0  0  0  0  0  0  0  0  0  0  0  0
    9.5556   14.0342   24.9635 N   0  0  0  0  0  0  0  0  0  0  0  0
    8.6258   13.7524   23.9960 C   0  0  0  0  0  0  0  0  0  0  0  0
    8.7840   12.8235   22.9533 C   0  0  0  0  0  0  0  0  0  0  0  0
    9.9243   11.8415   22.7328 C   0  0  0  0  0  0  0  0  0  0  0  0
   10.9077   12.0423   23.6585 F   0  0  0  0  0  0  0  0  0  0  0  0
    9.4728   10.5764   22.9884 F   0  0  0  0  0  0  0  0  0  0  0  0
    7.7145   12.9017   22.1372 N   0  0  0  0  0  0  0  0  0  0  0  0
    6.9145   13.8111   22.6764 N   0  0  0  0  0  0  0  0  0  0  0  0
    5.6824   14.1629   22.0051 C   0  0  0  0  0  0  0  0  0  0  0  0
    7.3718   14.3162   23.8369 C   0  0  0  0  0  0  0  0  0  0  0  0
    6.5589   15.3008   24.5754 C   0  0  0  0  0  0  0  0  0  0  0  0
    6.0624   12.2083   28.5274 C   0  0  0  0  0  0  0  0  0  0  0  0
    5.1474   11.2767   29.0358 C   0  0  0  0  0  0  0  0  0  0  0  0
  1  2  1  0
  2  3  1  0
  3  4  1  0
  4  5  2  0
  5  6  1  0
  6  7  2  0
  7  8  1  0
  8  9  2  0
  9 10  1  0
 10 11  3  0
  9 12  1  0
 12 13  2  0
 12 14  1  0
 14 15  1  0
 15 16  1  0
 16 17  1  0
 17 18  1  0
 17 19  1  0
 16 20  2  0
 20 21  1  0
 21 22  1  0
 21 23  1  0
 23 24  1  0
  7 25  1  0
 25 26  2  0
 26  4  1  0
 23 15  2  0
M  END
$$$$

     RDKit          3D

 23 23  0  0  0  0  0  0  0  0999 V2000
    5.5052   12.2483   25.6381 C   0  0  0  0  0  0  0  0  0  0  0  0
    6.5887   11.3001   26.0906 C   0  0  0  0  0  0  0  0  0  0  0  0
    5.9238   10.0083   26.4899 C   0  0  0  0  0  0  0  0  0  0  0  0
    7.1097   11.9434   27.3542 C   0  0  0  0  0  0  0  0  0  0  0  0
    7.6831   11.1498   25.0751 C   0  0  0  0  0  0  0  0  0  0  0  0
    8.4285   12.2083   24.5125 C   0  0  0  0  0  0  0  0  0  0  0  0
    9.3750   11.6235   23.7098 C   0  0  0  0  0  0  0  0  0  0  0  0
   10.3906   12.1826   22.9680 N   0  0  0  0  0  0  0  0  0  0  0  0
   10.8964   13.4417   23.2313 C   0  0  0  0  0  0  0  0  0  0  0  0
   10.6493   14.0918   24.2475 O   0  0  0  0  0  0  0  0  0  0  0  0
   11.8572   13.8764   22.1669 C   0  0  2  0  0  0  0  0  0  0  0  0
   12.8172   14.9322   22.6320 C   0  0  0  0  0  0  0  0  0  0  0  0
   12.1484   16.1305   22.9896 O   0  0  0  0  0  0  0  0  0  0  0  0
   11.2029   14.2633   20.8800 C   0  0  0  0  0  0  0  0  0  0  0  0
    9.9120   13.8654   20.8080 F   0  0  0  0  0  0  0  0  0  0  0  0
   11.1830   15.5949   20.7090 F   0  0  0  0  0  0  0  0  0  0  0  0
   11.8656   13.7646   19.8251 F   0  0  0  0  0  0  0  0  0  0  0  0
    9.1391   10.2675   23.7590 N   0  0  0  0  0  0  0  0  0  0  0  0
    9.7709    9.2346   22.9664 C   0  0  0  0  0  0  0  0  0  0  0  0
   10.4639    9.7423   21.7715 C   0  0  0  0  0  0  0  0  0  0  0  0
    8.7818    8.2969   22.3993 C   0  0  0  0  0  0  0  0  0  0  0  0
   10.8577    8.4480   23.5986 C   0  0  0  0  0  0  0  0  0  0  0  0
    8.1245    9.9629   24.6278 N   0  0  0  0  0  0  0  0  0  0  0  0
  1  2  1  0
  2  3  1  0
  2  4  1  0
  2  5  1  0
  5  6  1  0
  6  7  2  0
  7  8  1  0
  8  9  1  0
  9 10  2  0
  9 11  1  0
 11 12  1  1
 12 13  1  0
 11 14  1  0
 14 15  1  0
 14 16  1  0
 14 17  1  0
  7 18  1  0
 18 19  1  0
 19 20  1  0
 19 21  1  0
 19 22  1  0
 18 23  1  0
 23  5  2  0
M  END
$$$$

     RDKit          3D

 23 23  0  0  0  0  0  0  0  0999 V2000
    5.4725   12.1417   25.9385 C   0  0  0  0  0  0  0  0  0  0  0  0
    6.3237   10.8991   26.0998 C   0  0  0  0  0  0  0  0  0  0  0  0
    6.6315   10.8167   27.5666 C   0  0  0  0  0  0  0  0  0  0  0  0
    5.4570    9.7047   25.8604 C   0  0  0  0  0  0  0  0  0  0  0  0
    7.5296   10.9292   25.2115 C   0  0  0  0  0  0  0  0  0  0  0  0
    8.2025   12.0772   24.7560 C   0  0  0  0  0  0  0  0  0  0  0  0
    9.2222   11.6347   23.9485 C   0  0  0  0  0  0  0  0  0  0  0  0
   10.2072   12.3617   23.3087 N   0  0  0  0  0  0  0  0  0  0  0  0
   10.5758   13.6065   23.7886 C   0  0  0  0  0  0  0  0  0  0  0  0
   10.2511   14.0665   24.8874 O   0  0  0  0  0  0  0  0  0  0  0  0
   11.3912   14.4212   22.8434 C   0  0  1  0  0  0  0  0  0  0  0  0
   11.8741   15.6438   23.5703 C   0  0  0  0  0  0  0  0  0  0  0  0
   11.9802   16.7164   22.6556 O   0  0  0  0  0  0  0  0  0  0  0  0
   12.6486   13.7268   22.5332 C   0  0  0  0  0  0  0  0  0  0  0  0
   13.4519   14.5896   21.8974 F   0  0  0  0  0  0  0  0  0  0  0  0
   12.4393   12.6766   21.7561 F   0  0  0  0  0  0  0  0  0  0  0  0
   13.2779   13.3060   23.6599 F   0  0  0  0  0  0  0  0  0  0  0  0
    9.0872   10.2629   23.8839 N   0  0  0  0  0  0  0  0  0  0  0  0
    9.7869    9.3279   23.0267 C   0  0  0  0  0  0  0  0  0  0  0  0
   10.4001   10.0013   21.8727 C   0  0  0  0  0  0  0  0  0  0  0  0
    8.8717    8.3342   22.4154 C   0  0  0  0  0  0  0  0  0  0  0  0
   10.9399    8.5869   23.6075 C   0  0  0  0  0  0  0  0  0  0  0  0
    8.0983    9.8206   24.7143 N   0  0  0  0  0  0  0  0  0  0  0  0
  1  2  1  0
  2  3  1  0
  2  4  1  0
  2  5  1  0
  5  6  1  0
  6  7  2  0
  7  8  1  0
  8  9  1  0
  9 10  2  0
  9 11  1  0
 11 12  1  1
 12 13  1  0
 11 14  1  0
 14 15  1  0
 14 16  1  0
 14 17  1  0
  7 18  1  0
 18 19  1  0
 19 20  1  0
 19 21  1  0
 19 22  1  0
 18 23  1  0
 23  5  2  0
M  END
$$$$

     RDKit          3D

 29 30  0  0  0  0  0  0  0  0999 V2000
    8.8579    8.2401   22.3978 C   0  0  0  0  0  0  0  0  0  0  0  0
    9.8644    9.1574   22.9712 C   0  0  0  0  0  0  0  0  0  0  0  0
   11.0391    8.4182   23.5130 C   0  0  0  0  0  0  0  0  0  0  0  0
   10.4047    9.7926   21.7574 C   0  0  0  0  0  0  0  0  0  0  0  0
    9.2521   10.1260   23.8465 N   0  0  0  0  0  0  0  0  0  0  0  0
    8.1542    9.8267   24.5788 N   0  0  0  0  0  0  0  0  0  0  0  0
    7.7295   11.0156   25.0217 C   0  0  0  0  0  0  0  0  0  0  0  0
    6.5934   11.1993   25.8608 C   0  0  0  0  0  0  0  0  0  0  0  0
    6.0761   12.4857   25.9898 C   0  0  0  0  0  0  0  0  0  0  0  0
    5.0338   12.7173   26.8546 C   0  0  0  0  0  0  0  0  0  0  0  0
    4.5443   11.6517   27.5903 C   0  0  0  0  0  0  0  0  0  0  0  0
    3.5124   11.8620   28.4068 F   0  0  0  0  0  0  0  0  0  0  0  0
    5.0532   10.3673   27.4772 C   0  0  0  0  0  0  0  0  0  0  0  0
    6.0842   10.1431   26.5941 C   0  0  0  0  0  0  0  0  0  0  0  0
    8.5460   12.0656   24.5945 C   0  0  0  0  0  0  0  0  0  0  0  0
    9.5682   11.4480   23.9489 C   0  0  0  0  0  0  0  0  0  0  0  0
   10.7105   11.9715   23.4488 N   0  0  0  0  0  0  0  0  0  0  0  0
   11.0370   13.2891   23.6996 C   0  0  0  0  0  0  0  0  0  0  0  0
   10.7526   13.9372   24.7006 O   0  0  0  0  0  0  0  0  0  0  0  0
   11.5699   13.8052   22.4181 C   0  0  0  0  0  0  0  0  0  0  0  0
   10.5058   14.0601   21.6012 F   0  0  0  0  0  0  0  0  0  0  0  0
   12.3183   12.8580   21.7996 F   0  0  0  0  0  0  0  0  0  0  0  0
   12.4351   14.9870   22.6300 C   0  0  0  0  0  0  0  0  0  0  0  0
   11.8304   15.9683   23.3501 F   0  0  0  0  0  0  0  0  0  0  0  0
   13.5433   14.6244   23.3101 F   0  0  0  0  0  0  0  0  0  0  0  0
   12.6617   15.4506   21.2305 C   0  0  0  0  0  0  0  0  0  0  0  0
   13.5342   16.4634   21.1560 F   0  0  0  0  0  0  0  0  0  0  0  0
   11.4579   15.9273   20.7959 F   0  0  0  0  0  0  0  0  0  0  0  0
   13.0224   14.5179   20.3452 F   0  0  0  0  0  0  0  0  0  0  0  0
  1  2  1  0
  2  3  1  0
  2  4  1  0
  2  5  1  0
  5  6  1  0
  6  7  2  0
  7  8  1  0
  8  9  2  0
  9 10  1  0
 10 11  2  0
 11 12  1  0
 11 13  1  0
 13 14  2  0
  7 15  1  0
 15 16  2  0
 16 17  1  0
 17 18  1  0
 18 19  2  0
 18 20  1  0
 20 21  1  0
 20 22  1  0
 20 23  1  0
 23 24  1  0
 23 25  1  0
 23 26  1  0
 26 27  1  0
 26 28  1  0
 26 29  1  0
 16  5  1  0
 14  8  1  0
M  END
$$$$

     RDKit          3D

 18 19  0  0  0  0  0  0  0  0999 V2000
    9.5839    9.0517   23.2967 C   0  0  0  0  0  0  0  0  0  0  0  0
    8.7828   10.0006   24.0515 N   0  0  0  0  0  0  0  0  0  0  0  0
    7.7671    9.5534   24.8182 N   0  0  0  0  0  0  0  0  0  0  0  0
    7.3126   10.6305   25.4649 C   0  0  0  0  0  0  0  0  0  0  0  0
    6.1085   10.6231   26.5119 C   0  0  0  0  0  0  0  0  0  0  0  0
    5.0201    9.5467   26.3757 C   0  0  0  0  0  0  0  0  0  0  0  0
    4.9564    9.3888   27.8938 C   0  0  0  0  0  0  0  0  0  0  0  0
    6.3187   10.0923   27.9455 C   0  0  0  0  0  0  0  0  0  0  0  0
    8.0001   11.7985   25.0008 C   0  0  0  0  0  0  0  0  0  0  0  0
    8.9524   11.3574   24.0889 C   0  0  0  0  0  0  0  0  0  0  0  0
    9.9450   11.9643   23.3301 N   0  0  0  0  0  0  0  0  0  0  0  0
   10.4212   13.2514   23.5459 C   0  0  0  0  0  0  0  0  0  0  0  0
   10.0696   13.9925   24.4575 O   0  0  0  0  0  0  0  0  0  0  0  0
   11.3851   13.6442   22.4617 C   0  0  0  0  0  0  0  0  0  0  0  0
   12.3175   14.7428   22.8804 C   0  0  0  0  0  0  0  0  0  0  0  0
   11.6793   15.8535   23.2982 F   0  0  0  0  0  0  0  0  0  0  0  0
   13.0808   15.1301   21.8369 F   0  0  0  0  0  0  0  0  0  0  0  0
   13.1427   14.3267   23.8646 F   0  0  0  0  0  0  0  0  0  0  0  0
  1  2  1  0
  2  3  1  0
  3  4  2  0
  4  5  1  0
  5  6  1  0
  6  7  1  0
  7  8  1  0
  4  9  1  0
  9 10  2  0
 10 11  1  0
 11 12  1  0
 12 13  2  0
 12 14  1  0
 14 15  1  0
 15 16  1  0
 15 17  1  0
 15 18  1  0
 10  2  1  0
  8  5  1  0
M  END
$$$$

     RDKit          3D

 17 17  0  0  0  0  0  0  0  0999 V2000
   10.7816   14.3153   20.9451 C   0  0  0  0  0  0  0  0  0  0  0  0
   11.5896   13.8909   22.1484 C   0  0  2  0  0  0  0  0  0  0  0  0
   10.6686   13.4198   23.2358 C   0  0  0  0  0  0  0  0  0  0  0  0
   10.3840   14.0798   24.2350 O   0  0  0  0  0  0  0  0  0  0  0  0
   10.1634   12.1658   22.9699 N   0  0  0  0  0  0  0  0  0  0  0  0
    9.1398   11.6005   23.7374 C   0  0  0  0  0  0  0  0  0  0  0  0
    8.2511   12.4298   24.4182 C   0  0  0  0  0  0  0  0  0  0  0  0
    7.2925   11.8586   25.2132 C   0  0  0  0  0  0  0  0  0  0  0  0
    7.1779   10.5236   25.3599 N   0  0  0  0  0  0  0  0  0  0  0  0
    8.0456    9.7415   24.6692 C   0  0  0  0  0  0  0  0  0  0  0  0
    9.0164   10.2252   23.8276 C   0  0  0  0  0  0  0  0  0  0  0  0
    9.7884    9.3336   23.0472 C   0  0  0  0  0  0  0  0  0  0  0  0
   10.3696    8.6745   22.2994 N   0  0  0  0  0  0  0  0  0  0  0  0
   12.5491   14.9524   22.6236 C   0  0  0  0  0  0  0  0  0  0  0  0
   11.8996   16.2125   23.0963 C   0  0  0  0  0  0  0  0  0  0  0  0
   13.3593   14.3759   23.7608 C   0  0  0  0  0  0  0  0  0  0  0  0
   13.4149   15.3914   21.4792 C   0  0  0  0  0  0  0  0  0  0  0  0
  2  1  1  6
  2  3  1  0
  3  4  2  0
  3  5  1  0
  5  6  1  0
  6  7  2  0
  7  8  1  0
  8  9  2  0
  9 10  1  0
 10 11  2  0
 11 12  1  0
 12 13  3  0
  2 14  1  0
 14 15  1  0
 14 16  1  0
 14 17  1  0
 11  6  1  0
M  END
$$$$

     RDKit          3D

 17 17  0  0  0  0  0  0  0  0999 V2000
   12.3589   13.0215   21.6280 C   0  0  0  0  0  0  0  0  0  0  0  0
   11.5378   14.1009   22.2527 C   0  0  1  0  0  0  0  0  0  0  0  0
   10.6514   13.5204   23.3287 C   0  0  0  0  0  0  0  0  0  0  0  0
   10.3758   14.1193   24.3697 O   0  0  0  0  0  0  0  0  0  0  0  0
   10.1354   12.2797   23.0027 N   0  0  0  0  0  0  0  0  0  0  0  0
    9.1284   11.6667   23.7559 C   0  0  0  0  0  0  0  0  0  0  0  0
    8.2251   12.4641   24.4551 C   0  0  0  0  0  0  0  0  0  0  0  0
    7.2771   11.8586   25.2371 C   0  0  0  0  0  0  0  0  0  0  0  0
    7.1862   10.5193   25.3560 N   0  0  0  0  0  0  0  0  0  0  0  0
    8.0668    9.7678   24.6488 C   0  0  0  0  0  0  0  0  0  0  0  0
    9.0282   10.2858   23.8151 C   0  0  0  0  0  0  0  0  0  0  0  0
    9.8008    9.4104   23.0147 C   0  0  0  0  0  0  0  0  0  0  0  0
   10.3624    8.7452   22.2564 N   0  0  0  0  0  0  0  0  0  0  0  0
   12.5323   15.1028   22.7750 C   0  0  0  0  0  0  0  0  0  0  0  0
   11.8803   16.3542   23.2357 C   0  0  0  0  0  0  0  0  0  0  0  0
   13.4198   15.5421   21.6388 C   0  0  0  0  0  0  0  0  0  0  0  0
   13.3200   14.4845   23.9114 C   0  0  0  0  0  0  0  0  0  0  0  0
  2  1  1  1
  2  3  1  0
  3  4  2  0
  3  5  1  0
  5  6  1  0
  6  7  2  0
  7  8  1  0
  8  9  2  0
  9 10  1  0
 10 11  2  0
 11 12  1  0
 12 13  3  0
  2 14  1  0
 14 15  1  0
 14 16  1  0
 14 17  1  0
 11  6  1  0
M  END
$$$$

     RDKit          3D

 17 17  0  0  0  0  0  0  0  0999 V2000
   10.7816   14.3153   20.9451 C   0  0  0  0  0  0  0  0  0  0  0  0
   11.5896   13.8909   22.1484 C   0  0  2  0  0  0  0  0  0  0  0  0
   10.6686   13.4198   23.2358 C   0  0  0  0  0  0  0  0  0  0  0  0
   10.3840   14.0798   24.2350 O   0  0  0  0  0  0  0  0  0  0  0  0
   10.1634   12.1658   22.9699 N   0  0  0  0  0  0  0  0  0  0  0  0
    9.1398   11.6005   23.7374 C   0  0  0  0  0  0  0  0  0  0  0  0
    8.2511   12.4298   24.4182 C   0  0  0  0  0  0  0  0  0  0  0  0
    7.2925   11.8586   25.2132 C   0  0  0  0  0  0  0  0  0  0  0  0
    7.1779   10.5236   25.3599 N   0  0  0  0  0  0  0  0  0  0  0  0
    8.0456    9.7415   24.6692 C   0  0  0  0  0  0  0  0  0  0  0  0
    9.0164   10.2252   23.8276 C   0  0  0  0  0  0  0  0  0  0  0  0
    9.7884    9.3336   23.0472 C   0  0  0  0  0  0  0  0  0  0  0  0
   10.3696    8.6745   22.2994 N   0  0  0  0  0  0  0  0  0  0  0  0
   12.5491   14.9524   22.6236 C   0  0  0  0  0  0  0  0  0  0  0  0
   11.8996   16.2125   23.0963 C   0  0  0  0  0  0  0  0  0  0  0  0
   13.3593   14.3759   23.7608 C   0  0  0  0  0  0  0  0  0  0  0  0
   13.4149   15.3914   21.4792 C   0  0  0  0  0  0  0  0  0  0  0  0
  2  1  1  6
  2  3  1  0
  3  4  2  0
  3  5  1  0
  5  6  1  0
  6  7  2  0
  7  8  1  0
  8  9  2  0
  9 10  1  0
 10 11  2  0
 11 12  1  0
 12 13  3  0
  2 14  1  0
 14 15  1  0
 14 16  1  0
 14 17  1  0
 11  6  1  0
M  END
$$$$

     RDKit          3D

 17 17  0  0  0  0  0  0  0  0999 V2000
   12.3589   13.0215   21.6280 C   0  0  0  0  0  0  0  0  0  0  0  0
   11.5378   14.1009   22.2527 C   0  0  1  0  0  0  0  0  0  0  0  0
   10.6514   13.5204   23.3287 C   0  0  0  0  0  0  0  0  0  0  0  0
   10.3758   14.1193   24.3697 O   0  0  0  0  0  0  0  0  0  0  0  0
   10.1354   12.2797   23.0027 N   0  0  0  0  0  0  0  0  0  0  0  0
    9.1284   11.6667   23.7559 C   0  0  0  0  0  0  0  0  0  0  0  0
    8.2251   12.4641   24.4551 C   0  0  0  0  0  0  0  0  0  0  0  0
    7.2771   11.8586   25.2371 C   0  0  0  0  0  0  0  0  0  0  0  0
    7.1862   10.5193   25.3560 N   0  0  0  0  0  0  0  0  0  0  0  0
    8.0668    9.7678   24.6488 C   0  0  0  0  0  0  0  0  0  0  0  0
    9.0282   10.2858   23.8151 C   0  0  0  0  0  0  0  0  0  0  0  0
    9.8008    9.4104   23.0147 C   0  0  0  0  0  0  0  0  0  0  0  0
   10.3624    8.7452   22.2564 N   0  0  0  0  0  0  0  0  0  0  0  0
   12.5323   15.1028   22.7750 C   0  0  0  0  0  0  0  0  0  0  0  0
   11.8803   16.3542   23.2357 C   0  0  0  0  0  0  0  0  0  0  0  0
   13.4198   15.5421   21.6388 C   0  0  0  0  0  0  0  0  0  0  0  0
   13.3200   14.4845   23.9114 C   0  0  0  0  0  0  0  0  0  0  0  0
  2  1  1  1
  2  3  1  0
  3  4  2  0
  3  5  1  0
  5  6  1  0
  6  7  2  0
  7  8  1  0
  8  9  2  0
  9 10  1  0
 10 11  2  0
 11 12  1  0
 12 13  3  0
  2 14  1  0
 14 15  1  0
 14 16  1  0
 14 17  1  0
 11  6  1  0
M  END
$$$$

     RDKit          3D

 23 23  0  0  0  0  0  0  0  0999 V2000
   10.1648    9.0765   22.9371 C   0  0  0  0  0  0  0  0  0  0  0  0
    9.2248    9.9435   23.6720 C   0  0  0  0  0  0  0  0  0  0  0  0
    9.1729   11.3572   23.7048 C   0  0  0  0  0  0  0  0  0  0  0  0
    8.0900   11.6380   24.5080 C   0  0  0  0  0  0  0  0  0  0  0  0
    7.4816   12.7844   24.9255 N   0  0  0  0  0  0  0  0  0  0  0  0
    7.9869   14.0401   24.7139 C   0  0  0  0  0  0  0  0  0  0  0  0
    9.0299   14.3341   24.1464 O   0  0  0  0  0  0  0  0  0  0  0  0
    7.0867   15.0275   25.3824 C   0  0  1  0  0  0  0  0  0  0  0  0
    7.9384   16.0971   25.9894 C   0  0  0  0  0  0  0  0  0  0  0  0
    7.2548   17.2717   27.1319 P   0  0  0  0  0  0  0  0  0  0  0  0
    7.6695   16.5829   28.7089 C   0  0  0  0  0  0  0  0  0  0  0  0
    8.2047   18.7874   27.1789 C   0  0  0  0  0  0  0  0  0  0  0  0
    5.7964   17.5252   26.9764 O   0  0  0  0  0  0  0  0  0  0  0  0
    5.9589   15.3207   24.4297 C   0  0  0  0  0  0  0  0  0  0  0  0
    5.1705   14.2194   24.3614 F   0  0  0  0  0  0  0  0  0  0  0  0
    5.1664   16.3152   24.8351 F   0  0  0  0  0  0  0  0  0  0  0  0
    6.3632   15.5798   23.1765 F   0  0  0  0  0  0  0  0  0  0  0  0
    7.6059   10.4382   24.9210 N   0  0  0  0  0  0  0  0  0  0  0  0
    6.4265   10.1971   25.7274 C   0  0  0  0  0  0  0  0  0  0  0  0
    6.6258   10.7613   27.0998 C   0  0  0  0  0  0  0  0  0  0  0  0
    5.4713   10.5430   27.9488 C   0  0  0  0  0  0  0  0  0  0  0  0
    4.5605   10.4199   28.6552 N   0  0  0  0  0  0  0  0  0  0  0  0
    8.2618    9.3973   24.4223 N   0  0  0  0  0  0  0  0  0  0  0  0
  1  2  1  0
  2  3  1  0
  3  4  2  0
  4  5  1  0
  5  6  1  0
  6  7  2  0
  6  8  1  0
  8  9  1  6
  9 10  1  0
 10 11  1  0
 10 12  1  0
 10 13  2  0
  8 14  1  0
 14 15  1  0
 14 16  1  0
 14 17  1  0
  4 18  1  0
 18 19  1  0
 19 20  1  0
 20 21  1  0
 21 22  3  0
 18 23  1  0
 23  2  2  0
M  END
$$$$

     RDKit          3D

 23 23  0  0  0  0  0  0  0  0999 V2000
   10.0434    9.1044   22.9478 C   0  0  0  0  0  0  0  0  0  0  0  0
    9.1704   10.0332   23.6931 C   0  0  0  0  0  0  0  0  0  0  0  0
    9.1601   11.4494   23.6532 C   0  0  0  0  0  0  0  0  0  0  0  0
    8.1508   11.8067   24.5197 C   0  0  0  0  0  0  0  0  0  0  0  0
    7.5897   12.9940   24.8951 N   0  0  0  0  0  0  0  0  0  0  0  0
    8.1915   14.2053   24.6994 C   0  0  0  0  0  0  0  0  0  0  0  0
    9.3859   14.3913   24.4913 O   0  0  0  0  0  0  0  0  0  0  0  0
    7.2618   15.3554   24.9127 C   0  0  2  0  0  0  0  0  0  0  0  0
    7.0718   15.8797   26.3015 C   0  0  0  0  0  0  0  0  0  0  0  0
    7.6274   15.0742   27.7543 P   0  0  0  0  0  0  0  0  0  0  0  0
    9.3674   14.8259   27.5304 C   0  0  0  0  0  0  0  0  0  0  0  0
    6.8379   13.4841   27.7863 C   0  0  0  0  0  0  0  0  0  0  0  0
    7.3568   15.8730   28.9928 O   0  0  0  0  0  0  0  0  0  0  0  0
    5.9733   15.1821   24.1790 C   0  0  0  0  0  0  0  0  0  0  0  0
    5.1896   14.2945   24.8303 F   0  0  0  0  0  0  0  0  0  0  0  0
    5.2916   16.3362   24.1150 F   0  0  0  0  0  0  0  0  0  0  0  0
    6.1741   14.7422   22.9232 F   0  0  0  0  0  0  0  0  0  0  0  0
    7.6861   10.6476   25.0503 N   0  0  0  0  0  0  0  0  0  0  0  0
    6.8135   10.5517   26.1952 C   0  0  0  0  0  0  0  0  0  0  0  0
    5.6673    9.6313   25.9553 C   0  0  0  0  0  0  0  0  0  0  0  0
    4.8225    9.5440   27.1347 C   0  0  0  0  0  0  0  0  0  0  0  0
    4.0871    9.5465   28.0321 N   0  0  0  0  0  0  0  0  0  0  0  0
    8.2451    9.5572   24.5362 N   0  0  0  0  0  0  0  0  0  0  0  0
  1  2  1  0
  2  3  1  0
  3  4  2  0
  4  5  1  0
  5  6  1  0
  6  7  2  0
  6  8  1  0
  8  9  1  1
  9 10  1  0
 10 11  1  0
 10 12  1  0
 10 13  2  0
  8 14  1  0
 14 15  1  0
 14 16  1  0
 14 17  1  0
  4 18  1  0
 18 19  1  0
 19 20  1  0
 20 21  1  0
 21 22  3  0
 18 23  1  0
 23  2  2  0
M  END
$$$$

     RDKit          3D

 21 21  0  0  0  0  0  0  0  0999 V2000
    5.8513   12.3379   26.0546 C   0  0  0  0  0  0  0  0  0  0  0  0
    6.3419   10.9542   25.7105 C   0  0  0  0  0  0  0  0  0  0  0  0
    6.3084   10.1146   26.9541 C   0  0  0  0  0  0  0  0  0  0  0  0
    7.6048   10.9177   24.9337 C   0  0  0  0  0  0  0  0  0  0  0  0
    8.3656   12.0085   24.4639 C   0  0  0  0  0  0  0  0  0  0  0  0
    9.3650   11.4667   23.6836 C   0  0  0  0  0  0  0  0  0  0  0  0
   10.4184   12.0914   23.0338 N   0  0  0  0  0  0  0  0  0  0  0  0
   10.9634   13.2095   23.6545 C   0  0  0  0  0  0  0  0  0  0  0  0
   10.9147   13.3419   24.8802 O   0  0  0  0  0  0  0  0  0  0  0  0
   11.5322   14.2938   22.7604 C   0  0  2  0  0  0  0  0  0  0  0  0
   10.4454   14.7146   21.8715 N   0  0  0  0  0  0  0  0  0  0  0  0
   12.7487   13.9720   21.9526 C   0  0  0  0  0  0  0  0  0  0  0  0
   12.5611   12.8841   21.0023 C   0  0  0  0  0  0  0  0  0  0  0  0
   13.2231   15.1262   21.0998 C   0  0  0  0  0  0  0  0  0  0  0  0
   12.0864   15.3537   23.6901 C   0  0  0  0  0  0  0  0  0  0  0  0
   13.1879   14.8647   24.3085 F   0  0  0  0  0  0  0  0  0  0  0  0
   12.4331   16.4515   22.9741 F   0  0  0  0  0  0  0  0  0  0  0  0
   11.2501   15.7829   24.6467 F   0  0  0  0  0  0  0  0  0  0  0  0
    9.1536   10.1197   23.7090 N   0  0  0  0  0  0  0  0  0  0  0  0
    9.9598    9.0920   23.0805 C   0  0  0  0  0  0  0  0  0  0  0  0
    8.0907    9.7610   24.4636 N   0  0  0  0  0  0  0  0  0  0  0  0
  1  2  1  0
  2  3  1  0
  2  4  1  0
  4  5  1  0
  5  6  2  0
  6  7  1  0
  7  8  1  0
  8  9  2  0
  8 10  1  0
 10 11  1  6
 10 12  1  0
 12 13  1  0
 12 14  1  0
 10 15  1  0
 15 16  1  0
 15 17  1  0
 15 18  1  0
  6 19  1  0
 19 20  1  0
 19 21  1  0
 21  4  2  0
M  END
$$$$

     RDKit          3D

 23 24  0  0  0  0  0  0  0  0999 V2000
   10.3669    9.9576   21.9364 C   0  0  0  0  0  0  0  0  0  0  0  0
    9.7166    9.1787   23.0152 C   0  0  0  0  0  0  0  0  0  0  0  0
   10.8764    8.4339   23.5772 C   0  0  0  0  0  0  0  0  0  0  0  0
    8.8867    8.2148   22.2573 C   0  0  0  0  0  0  0  0  0  0  0  0
    8.9403   10.0049   23.9284 N   0  0  0  0  0  0  0  0  0  0  0  0
    7.9287    9.4804   24.6855 N   0  0  0  0  0  0  0  0  0  0  0  0
    7.3991   10.5076   25.3710 C   0  0  0  0  0  0  0  0  0  0  0  0
    6.2685   10.3670   26.3684 C   0  0  0  0  0  0  0  0  0  0  0  0
    6.5801   10.3374   27.8445 C   0  0  0  0  0  0  0  0  0  0  0  0
    5.6167    9.3740   28.5269 C   0  0  0  0  0  0  0  0  0  0  0  0
    4.4793    9.1780   27.5567 C   0  0  0  0  0  0  0  0  0  0  0  0
    5.1187    9.4066   26.1934 C   0  0  0  0  0  0  0  0  0  0  0  0
    8.0580   11.7217   24.9833 C   0  0  0  0  0  0  0  0  0  0  0  0
    9.0472   11.3741   24.0838 C   0  0  0  0  0  0  0  0  0  0  0  0
   10.0572   12.0546   23.4335 N   0  0  0  0  0  0  0  0  0  0  0  0
   10.5260   13.3306   23.6744 C   0  0  0  0  0  0  0  0  0  0  0  0
    9.9980   14.1349   24.4356 O   0  0  0  0  0  0  0  0  0  0  0  0
   11.8290   13.5485   22.9157 C   0  0  2  0  0  0  0  0  0  0  0  0
   12.8440   12.7682   23.6341 N   0  0  0  0  0  0  0  0  0  0  0  0
   12.2506   14.9888   22.9722 C   0  0  0  0  0  0  0  0  0  0  0  0
   11.3211   15.8206   22.4709 F   0  0  0  0  0  0  0  0  0  0  0  0
   13.3702   15.2207   22.2586 F   0  0  0  0  0  0  0  0  0  0  0  0
   12.4931   15.3622   24.2432 F   0  0  0  0  0  0  0  0  0  0  0  0
  1  2  1  0
  2  3  1  0
  2  4  1  0
  2  5  1  0
  5  6  1  0
  6  7  2  0
  7  8  1  0
  8  9  1  0
  9 10  1  0
 10 11  1  0
 11 12  1  0
  7 13  1  0
 13 14  2  0
 14 15  1  0
 15 16  1  0
 16 17  2  0
 16 18  1  0
 18 19  1  1
 18 20  1  0
 20 21  1  0
 20 22  1  0
 20 23  1  0
 14  5  1  0
 12  8  1  0
M  END
$$$$

     RDKit          3D

 24 26  0  0  0  0  0  0  0  0999 V2000
    7.8007   12.9921   27.6541 N   0  0  0  0  0  0  0  0  0  0  0  0
    7.5176   12.2658   26.7985 C   0  0  0  0  0  0  0  0  0  0  0  0
    7.0551   11.3178   25.8060 C   0  0  0  0  0  0  0  0  0  0  0  0
    5.7065   10.9469   26.3890 C   0  0  0  0  0  0  0  0  0  0  0  0
    4.6878   11.5786   26.1211 O   0  0  0  0  0  0  0  0  0  0  0  0
    5.8243   10.0231   27.4179 N   0  0  0  0  0  0  0  0  0  0  0  0
    4.8091    9.2484   27.9147 C   0  0  0  0  0  0  0  0  0  0  0  0
    4.7354    8.6223   29.1770 C   0  0  0  0  0  0  0  0  0  0  0  0
    3.5845    7.9506   29.3299 N   0  0  0  0  0  0  0  0  0  0  0  0
    3.0628    7.9751   28.1019 N   0  0  0  0  0  0  0  0  0  0  0  0
    1.8521    7.2654   27.7982 C   0  0  2  0  0  0  0  0  0  0  0  0
    0.7564    7.5768   28.8096 C   0  0  0  0  0  0  0  0  0  0  0  0
    0.7030    6.4203   29.7881 C   0  0  0  0  0  0  0  0  0  0  0  0
    0.9576    5.0096   28.7459 S   0  0  0  0  0  0  0  0  0  0  0  0
   -0.2732    4.8016   28.0045 O   0  0  0  0  0  0  0  0  0  0  0  0
    1.5820    3.9627   29.5143 O   0  0  0  0  0  0  0  0  0  0  0  0
    2.1120    5.7788   27.6532 C   0  0  0  0  0  0  0  0  0  0  0  0
    3.7028    8.8005   27.2422 C   0  0  0  0  0  0  0  0  0  0  0  0
    7.0780   12.0332   24.4724 C   0  0  0  0  0  0  0  0  0  0  0  0
    8.4700   12.0410   23.8495 C   0  0  0  0  0  0  0  0  0  0  0  0
    8.9887   10.6360   23.6693 C   0  0  0  0  0  0  0  0  0  0  0  0
    9.9403   10.3970   22.9402 O   0  0  0  0  0  0  0  0  0  0  0  0
    8.2739    9.5548   24.4022 C   0  0  0  0  0  0  0  0  0  0  0  0
    7.9191   10.0922   25.7538 C   0  0  0  0  0  0  0  0  0  0  0  0
  1  2  3  0
  2  3  1  0
  3  4  1  0
  4  5  2  0
  4  6  1  0
  6  7  1  0
  7  8  1  0
  8  9  2  0
  9 10  1  0
 11 10  1  1
 11 12  1  0
 12 13  1  0
 13 14  1  0
 14 15  2  0
 14 16  2  0
 14 17  1  0
 10 18  1  0
  3 19  1  0
 19 20  1  0
 20 21  1  0
 21 22  2  0
 21 23  1  0
 23 24  1  0
 24  3  1  0
 18  7  2  0
 17 11  1  0
M  END
$$$$

     RDKit          3D

 24 26  0  0  0  0  0  0  0  0999 V2000
    7.8007   12.9921   27.6541 N   0  0  0  0  0  0  0  0  0  0  0  0
    7.5176   12.2658   26.7985 C   0  0  0  0  0  0  0  0  0  0  0  0
    7.0551   11.3178   25.8060 C   0  0  0  0  0  0  0  0  0  0  0  0
    5.7065   10.9469   26.3890 C   0  0  0  0  0  0  0  0  0  0  0  0
    4.6878   11.5786   26.1211 O   0  0  0  0  0  0  0  0  0  0  0  0
    5.8243   10.0231   27.4179 N   0  0  0  0  0  0  0  0  0  0  0  0
    4.8091    9.2484   27.9147 C   0  0  0  0  0  0  0  0  0  0  0  0
    4.7354    8.6223   29.1770 C   0  0  0  0  0  0  0  0  0  0  0  0
    3.5845    7.9506   29.3299 N   0  0  0  0  0  0  0  0  0  0  0  0
    3.0628    7.9751   28.1019 N   0  0  0  0  0  0  0  0  0  0  0  0
    1.8521    7.2654   27.7982 C   0  0  2  0  0  0  0  0  0  0  0  0
    0.7564    7.5768   28.8096 C   0  0  0  0  0  0  0  0  0  0  0  0
    0.7030    6.4203   29.7881 C   0  0  0  0  0  0  0  0  0  0  0  0
    0.9576    5.0096   28.7459 S   0  0  0  0  0  0  0  0  0  0  0  0
   -0.2732    4.8016   28.0045 O   0  0  0  0  0  0  0  0  0  0  0  0
    1.5820    3.9627   29.5143 O   0  0  0  0  0  0  0  0  0  0  0  0
    2.1120    5.7788   27.6532 C   0  0  0  0  0  0  0  0  0  0  0  0
    3.7028    8.8005   27.2422 C   0  0  0  0  0  0  0  0  0  0  0  0
    7.0780   12.0332   24.4724 C   0  0  0  0  0  0  0  0  0  0  0  0
    8.4700   12.0410   23.8495 C   0  0  0  0  0  0  0  0  0  0  0  0
    8.9887   10.6360   23.6693 C   0  0  0  0  0  0  0  0  0  0  0  0
    9.9403   10.3970   22.9402 O   0  0  0  0  0  0  0  0  0  0  0  0
    8.2739    9.5548   24.4022 C   0  0  0  0  0  0  0  0  0  0  0  0
    7.9191   10.0922   25.7538 C   0  0  0  0  0  0  0  0  0  0  0  0
  1  2  3  0
  2  3  1  0
  3  4  1  0
  4  5  2  0
  4  6  1  0
  6  7  1  0
  7  8  1  0
  8  9  2  0
  9 10  1  0
 11 10  1  1
 11 12  1  0
 12 13  1  0
 13 14  1  0
 14 15  2  0
 14 16  2  0
 14 17  1  0
 10 18  1  0
  3 19  1  0
 19 20  1  0
 20 21  1  0
 21 22  2  0
 21 23  1  0
 23 24  1  0
 24  3  1  0
 18  7  2  0
 17 11  1  0
M  END
$$$$

     RDKit          3D

 24 26  0  0  0  0  0  0  0  0999 V2000
    7.8007   12.9921   27.6541 N   0  0  0  0  0  0  0  0  0  0  0  0
    7.5176   12.2658   26.7985 C   0  0  0  0  0  0  0  0  0  0  0  0
    7.0551   11.3178   25.8060 C   0  0  0  0  0  0  0  0  0  0  0  0
    5.7065   10.9469   26.3890 C   0  0  0  0  0  0  0  0  0  0  0  0
    4.6878   11.5786   26.1211 O   0  0  0  0  0  0  0  0  0  0  0  0
    5.8243   10.0231   27.4179 N   0  0  0  0  0  0  0  0  0  0  0  0
    4.8091    9.2484   27.9147 C   0  0  0  0  0  0  0  0  0  0  0  0
    4.7354    8.6223   29.1770 C   0  0  0  0  0  0  0  0  0  0  0  0
    3.5845    7.9506   29.3299 N   0  0  0  0  0  0  0  0  0  0  0  0
    3.0628    7.9751   28.1019 N   0  0  0  0  0  0  0  0  0  0  0  0
    1.8521    7.2654   27.7982 C   0  0  2  0  0  0  0  0  0  0  0  0
    0.7564    7.5768   28.8096 C   0  0  0  0  0  0  0  0  0  0  0  0
    0.7030    6.4203   29.7881 C   0  0  0  0  0  0  0  0  0  0  0  0
    0.9576    5.0096   28.7459 S   0  0  0  0  0  0  0  0  0  0  0  0
   -0.2732    4.8016   28.0045 O   0  0  0  0  0  0  0  0  0  0  0  0
    1.5820    3.9627   29.5143 O   0  0  0  0  0  0  0  0  0  0  0  0
    2.1120    5.7788   27.6532 C   0  0  0  0  0  0  0  0  0  0  0  0
    3.7028    8.8005   27.2422 C   0  0  0  0  0  0  0  0  0  0  0  0
    7.0780   12.0332   24.4724 C   0  0  0  0  0  0  0  0  0  0  0  0
    8.4700   12.0410   23.8495 C   0  0  0  0  0  0  0  0  0  0  0  0
    8.9887   10.6360   23.6693 C   0  0  0  0  0  0  0  0  0  0  0  0
    9.9403   10.3970   22.9402 O   0  0  0  0  0  0  0  0  0  0  0  0
    8.2739    9.5548   24.4022 C   0  0  0  0  0  0  0  0  0  0  0  0
    7.9191   10.0922   25.7538 C   0  0  0  0  0  0  0  0  0  0  0  0
  1  2  3  0
  2  3  1  0
  3  4  1  0
  4  5  2  0
  4  6  1  0
  6  7  1  0
  7  8  1  0
  8  9  2  0
  9 10  1  0
 11 10  1  1
 11 12  1  0
 12 13  1  0
 13 14  1  0
 14 15  2  0
 14 16  2  0
 14 17  1  0
 10 18  1  0
  3 19  1  0
 19 20  1  0
 20 21  1  0
 21 22  2  0
 21 23  1  0
 23 24  1  0
 24  3  1  0
 18  7  2  0
 17 11  1  0
M  END
$$$$

     RDKit          3D

 26 27  0  0  0  0  0  0  0  0999 V2000
   10.0032    8.7831   23.0109 C   0  0  0  0  0  0  0  0  0  0  0  0
    9.0739    9.6180   23.7905 C   0  0  0  0  0  0  0  0  0  0  0  0
    9.1376   11.0012   23.9602 C   0  0  0  0  0  0  0  0  0  0  0  0
    8.0717   11.2908   24.7758 C   0  0  0  0  0  0  0  0  0  0  0  0
    7.6537   12.4718   25.2842 N   0  0  0  0  0  0  0  0  0  0  0  0
    8.3734   13.6340   25.1192 C   0  0  0  0  0  0  0  0  0  0  0  0
    9.3378   13.8289   24.3836 O   0  0  0  0  0  0  0  0  0  0  0  0
    7.7174   14.7115   25.9042 C   0  0  2  0  0  0  0  0  0  0  0  0
    6.6096   14.2803   26.6801 O   0  0  0  0  0  0  0  0  0  0  0  0
    7.2574   15.5770   24.7896 C   0  0  0  0  0  0  0  0  0  0  0  0
    5.8892   15.9834   24.8744 N   0  0  0  0  0  0  0  0  0  0  0  0
    5.8447   17.0114   25.8956 C   0  0  0  0  0  0  0  0  0  0  0  0
    5.5586   16.5054   23.5721 C   0  0  0  0  0  0  0  0  0  0  0  0
    8.6962   15.4031   26.7904 C   0  0  0  0  0  0  0  0  0  0  0  0
    9.8123   15.8146   26.1584 F   0  0  0  0  0  0  0  0  0  0  0  0
    8.1545   16.5292   27.3276 F   0  0  0  0  0  0  0  0  0  0  0  0
    9.0512   14.6144   27.8216 F   0  0  0  0  0  0  0  0  0  0  0  0
    7.4258   10.1161   25.0695 N   0  0  0  0  0  0  0  0  0  0  0  0
    6.0165    9.9751   25.4545 C   0  0  0  0  0  0  0  0  0  0  0  0
    5.5909    9.8305   26.8785 C   0  0  0  0  0  0  0  0  0  0  0  0
    4.6709    8.8440   27.2569 C   0  0  0  0  0  0  0  0  0  0  0  0
    4.4454    8.6129   28.6028 C   0  0  0  0  0  0  0  0  0  0  0  0
    5.1008    9.4000   29.5263 C   0  0  0  0  0  0  0  0  0  0  0  0
    5.8710   10.4428   29.0501 C   0  0  0  0  0  0  0  0  0  0  0  0
    6.0909   10.7114   27.7527 N   0  0  0  0  0  0  0  0  0  0  0  0
    8.0198    9.0897   24.4208 N   0  0  0  0  0  0  0  0  0  0  0  0
  1  2  1  0
  2  3  1  0
  3  4  2  0
  4  5  1  0
  5  6  1  0
  6  7  2  0
  6  8  1  0
  8  9  1  1
  8 10  1  0
 10 11  1  0
 11 12  1  0
 11 13  1  0
  8 14  1  0
 14 15  1  0
 14 16  1  0
 14 17  1  0
  4 18  1  0
 18 19  1  0
 19 20  1  0
 20 21  2  0
 21 22  1  0
 22 23  2  0
 23 24  1  0
 24 25  2  0
 18 26  1  0
 26  2  2  0
 25 20  1  0
M  END
$$$$

     RDKit          3D

 26 27  0  0  0  0  0  0  0  0999 V2000
    9.8750    9.0288   23.2163 C   0  0  0  0  0  0  0  0  0  0  0  0
    8.9566    9.9242   23.9491 C   0  0  0  0  0  0  0  0  0  0  0  0
    8.9871   11.3213   24.0085 C   0  0  0  0  0  0  0  0  0  0  0  0
    7.8897   11.6807   24.7651 C   0  0  0  0  0  0  0  0  0  0  0  0
    7.5414   12.9840   25.0127 N   0  0  0  0  0  0  0  0  0  0  0  0
    6.4310   13.4374   25.6813 C   0  0  0  0  0  0  0  0  0  0  0  0
    5.4873   12.7494   26.0580 O   0  0  0  0  0  0  0  0  0  0  0  0
    6.4540   14.9345   25.8888 C   0  0  1  0  0  0  0  0  0  0  0  0
    6.5787   15.6016   24.6436 O   0  0  0  0  0  0  0  0  0  0  0  0
    5.1838   15.3584   26.6205 C   0  0  0  0  0  0  0  0  0  0  0  0
    3.9187   15.6395   25.9521 N   0  0  0  0  0  0  0  0  0  0  0  0
    3.6961   14.7445   24.8288 C   0  0  0  0  0  0  0  0  0  0  0  0
    3.9923   16.9857   25.4248 C   0  0  0  0  0  0  0  0  0  0  0  0
    7.6289   15.2740   26.7775 C   0  0  0  0  0  0  0  0  0  0  0  0
    7.6243   14.5911   27.9419 F   0  0  0  0  0  0  0  0  0  0  0  0
    7.6370   16.5948   27.1034 F   0  0  0  0  0  0  0  0  0  0  0  0
    8.8271   15.0515   26.1821 F   0  0  0  0  0  0  0  0  0  0  0  0
    7.2791   10.4992   25.1644 N   0  0  0  0  0  0  0  0  0  0  0  0
    5.8897   10.2840   25.5776 C   0  0  0  0  0  0  0  0  0  0  0  0
    5.5587    9.8705   26.9750 C   0  0  0  0  0  0  0  0  0  0  0  0
    4.5794    8.9014   27.2184 C   0  0  0  0  0  0  0  0  0  0  0  0
    4.3584    8.4791   28.5186 C   0  0  0  0  0  0  0  0  0  0  0  0
    5.0829    9.0585   29.5387 C   0  0  0  0  0  0  0  0  0  0  0  0
    5.9508   10.0790   29.2094 C   0  0  0  0  0  0  0  0  0  0  0  0
    6.1772   10.5303   27.9660 N   0  0  0  0  0  0  0  0  0  0  0  0
    7.9276    9.4325   24.6400 N   0  0  0  0  0  0  0  0  0  0  0  0
  1  2  1  0
  2  3  1  0
  3  4  2  0
  4  5  1  0
  5  6  1  0
  6  7  2  0
  6  8  1  0
  8  9  1  6
  8 10  1  0
 10 11  1  0
 11 12  1  0
 11 13  1  0
  8 14  1  0
 14 15  1  0
 14 16  1  0
 14 17  1  0
  4 18  1  0
 18 19  1  0
 19 20  1  0
 20 21  2  0
 21 22  1  0
 22 23  2  0
 23 24  1  0
 24 25  2  0
 18 26  1  0
 26  2  2  0
 25 20  1  0
M  END
$$$$

     RDKit          3D

 23 23  0  0  0  0  0  0  0  0999 V2000
    9.6651    8.7063   22.0971 C   0  0  0  0  0  0  0  0  0  0  0  0
   10.0077    9.2405   23.4533 C   0  0  0  0  0  0  0  0  0  0  0  0
    9.0459   10.2267   23.9075 N   0  0  0  0  0  0  0  0  0  0  0  0
    8.0385    9.8426   24.7238 N   0  0  0  0  0  0  0  0  0  0  0  0
    7.4816   10.9881   25.1434 C   0  0  0  0  0  0  0  0  0  0  0  0
    6.3047   10.9987   26.0679 C   0  0  0  0  0  0  0  0  0  0  0  0
    5.4434   12.2288   25.8846 C   0  0  0  0  0  0  0  0  0  0  0  0
    6.6665   10.9800   27.5242 C   0  0  0  0  0  0  0  0  0  0  0  0
    5.4407    9.7838   25.9140 C   0  0  0  0  0  0  0  0  0  0  0  0
    8.1514   12.1027   24.5869 C   0  0  0  0  0  0  0  0  0  0  0  0
    9.1711   11.5870   23.8214 C   0  0  0  0  0  0  0  0  0  0  0  0
   10.2041   12.1954   23.1467 N   0  0  0  0  0  0  0  0  0  0  0  0
   10.6129   13.5009   23.4425 C   0  0  0  0  0  0  0  0  0  0  0  0
   10.1009   14.2046   24.3132 O   0  0  0  0  0  0  0  0  0  0  0  0
   11.7868   13.9435   22.5818 C   0  0  1  0  0  0  0  0  0  0  0  0
   12.8057   12.9399   22.8597 N   0  0  0  0  0  0  0  0  0  0  0  0
   11.3813   13.9705   21.1196 C   0  0  0  0  0  0  0  0  0  0  0  0
   12.4633   14.3022   20.1278 C   0  0  0  0  0  0  0  0  0  0  0  0
   10.1489   14.7826   20.8128 C   0  0  0  0  0  0  0  0  0  0  0  0
   12.4010   15.2285   23.0691 C   0  0  0  0  0  0  0  0  0  0  0  0
   13.5095   15.5366   22.3602 F   0  0  0  0  0  0  0  0  0  0  0  0
   11.6020   16.3034   22.9677 F   0  0  0  0  0  0  0  0  0  0  0  0
   12.7695   15.1050   24.3654 F   0  0  0  0  0  0  0  0  0  0  0  0
  1  2  1  0
  2  3  1  0
  3  4  1  0
  4  5  2  0
  5  6  1  0
  6  7  1  0
  6  8  1  0
  6  9  1  0
  5 10  1  0
 10 11  2  0
 11 12  1  0
 12 13  1  0
 13 14  2  0
 13 15  1  0
 15 16  1  6
 15 17  1  0
 17 18  1  0
 17 19  1  0
 15 20  1  0
 20 21  1  0
 20 22  1  0
 20 23  1  0
 11  3  1  0
M  END
$$$$

     RDKit          3D

 16 17  0  0  0  0  0  0  0  0999 V2000
    9.4534    9.1531   23.4878 C   0  0  0  0  0  0  0  0  0  0  0  0
    8.7083   10.2811   24.1264 C   0  0  0  0  0  0  0  0  0  0  0  0
    7.6556    9.9467   24.9467 C   0  0  0  0  0  0  0  0  0  0  0  0
    6.8574   10.8402   25.5661 N   0  0  0  0  0  0  0  0  0  0  0  0
    7.1248   12.1446   25.3690 C   0  0  0  0  0  0  0  0  0  0  0  0
    8.1906   12.5842   24.6285 C   0  0  0  0  0  0  0  0  0  0  0  0
    9.0115   11.6456   24.0137 C   0  0  0  0  0  0  0  0  0  0  0  0
   10.1272   12.1218   23.3058 N   0  0  0  0  0  0  0  0  0  0  0  0
   10.6584   11.2593   22.4149 N   0  0  0  0  0  0  0  0  0  0  0  0
   10.8170   13.2944   23.5929 C   0  0  0  0  0  0  0  0  0  0  0  0
   10.5344   14.0401   24.5387 O   0  0  0  0  0  0  0  0  0  0  0  0
   12.0331   13.5767   22.7207 C   0  0  2  0  0  0  0  0  0  0  0  0
   12.7607   14.8287   23.1406 C   0  0  0  0  0  0  0  0  0  0  0  0
   12.0790   16.0334   22.5417 C   0  0  0  0  0  0  0  0  0  0  0  0
   11.0893   15.4192   21.1593 S   0  0  0  0  0  0  0  0  0  0  0  0
   11.7010   13.7542   21.2633 C   0  0  0  0  0  0  0  0  0  0  0  0
  1  2  1  0
  2  3  2  0
  3  4  1  0
  4  5  2  0
  5  6  1  0
  6  7  2  0
  7  8  1  0
  8  9  1  0
  8 10  1  0
 10 11  2  0
 12 10  1  1
 12 13  1  0
 13 14  1  0
 14 15  1  0
 15 16  1  0
  7  2  1  0
 16 12  1  0
M  END
$$$$

     RDKit          3D

 16 17  0  0  0  0  0  0  0  0999 V2000
    9.2689   13.8152   23.4505 C   0  0  0  0  0  0  0  0  0  0  0  0
    8.7094   12.5454   23.9867 C   0  0  0  0  0  0  0  0  0  0  0  0
    9.3793   11.3961   23.5865 C   0  0  0  0  0  0  0  0  0  0  0  0
    9.0475   10.1594   23.9851 N   0  0  0  0  0  0  0  0  0  0  0  0
    7.9952   10.0553   24.8041 C   0  0  0  0  0  0  0  0  0  0  0  0
    7.2597   11.1376   25.2448 C   0  0  0  0  0  0  0  0  0  0  0  0
    7.6018   12.4268   24.8455 C   0  0  0  0  0  0  0  0  0  0  0  0
    6.8261   13.5366   25.3116 N   0  0  0  0  0  0  0  0  0  0  0  0
    7.1238   14.7969   24.8032 N   0  0  0  0  0  0  0  0  0  0  0  0
    5.7322   13.5396   26.1783 C   0  0  0  0  0  0  0  0  0  0  0  0
    5.0990   14.5607   26.4678 O   0  0  0  0  0  0  0  0  0  0  0  0
    5.3735   12.2497   26.8687 C   0  0  1  0  0  0  0  0  0  0  0  0
    6.2222   12.0643   28.1151 C   0  0  0  0  0  0  0  0  0  0  0  0
    5.5150   12.6954   29.2927 C   0  0  0  0  0  0  0  0  0  0  0  0
    3.8169   12.1550   29.0387 S   0  0  0  0  0  0  0  0  0  0  0  0
    3.9059   12.2574   27.2406 C   0  0  0  0  0  0  0  0  0  0  0  0
  1  2  1  0
  2  3  2  0
  3  4  1  0
  4  5  2  0
  5  6  1  0
  6  7  2  0
  7  8  1  0
  8  9  1  0
  8 10  1  0
 10 11  2  0
 12 10  1  1
 12 13  1  0
 13 14  1  0
 14 15  1  0
 15 16  1  0
  7  2  1  0
 16 12  1  0
M  END
$$$$

     RDKit          3D

 16 17  0  0  0  0  0  0  0  0999 V2000
    9.4534    9.1531   23.4878 C   0  0  0  0  0  0  0  0  0  0  0  0
    8.7083   10.2811   24.1264 C   0  0  0  0  0  0  0  0  0  0  0  0
    7.6556    9.9467   24.9467 C   0  0  0  0  0  0  0  0  0  0  0  0
    6.8574   10.8402   25.5661 N   0  0  0  0  0  0  0  0  0  0  0  0
    7.1248   12.1446   25.3690 C   0  0  0  0  0  0  0  0  0  0  0  0
    8.1906   12.5842   24.6285 C   0  0  0  0  0  0  0  0  0  0  0  0
    9.0115   11.6456   24.0137 C   0  0  0  0  0  0  0  0  0  0  0  0
   10.1272   12.1218   23.3058 N   0  0  0  0  0  0  0  0  0  0  0  0
   10.6584   11.2593   22.4149 N   0  0  0  0  0  0  0  0  0  0  0  0
   10.8170   13.2944   23.5929 C   0  0  0  0  0  0  0  0  0  0  0  0
   10.5344   14.0401   24.5387 O   0  0  0  0  0  0  0  0  0  0  0  0
   12.0331   13.5767   22.7207 C   0  0  2  0  0  0  0  0  0  0  0  0
   12.7607   14.8287   23.1406 C   0  0  0  0  0  0  0  0  0  0  0  0
   12.0790   16.0334   22.5417 C   0  0  0  0  0  0  0  0  0  0  0  0
   11.0893   15.4192   21.1593 S   0  0  0  0  0  0  0  0  0  0  0  0
   11.7010   13.7542   21.2633 C   0  0  0  0  0  0  0  0  0  0  0  0
  1  2  1  0
  2  3  2  0
  3  4  1  0
  4  5  2  0
  5  6  1  0
  6  7  2  0
  7  8  1  0
  8  9  1  0
  8 10  1  0
 10 11  2  0
 12 10  1  1
 12 13  1  0
 13 14  1  0
 14 15  1  0
 15 16  1  0
  7  2  1  0
 16 12  1  0
M  END
$$$$

     RDKit          3D

 16 17  0  0  0  0  0  0  0  0999 V2000
    9.2689   13.8152   23.4505 C   0  0  0  0  0  0  0  0  0  0  0  0
    8.7094   12.5454   23.9867 C   0  0  0  0  0  0  0  0  0  0  0  0
    9.3793   11.3961   23.5865 C   0  0  0  0  0  0  0  0  0  0  0  0
    9.0475   10.1594   23.9851 N   0  0  0  0  0  0  0  0  0  0  0  0
    7.9952   10.0553   24.8041 C   0  0  0  0  0  0  0  0  0  0  0  0
    7.2597   11.1376   25.2448 C   0  0  0  0  0  0  0  0  0  0  0  0
    7.6018   12.4268   24.8455 C   0  0  0  0  0  0  0  0  0  0  0  0
    6.8261   13.5366   25.3116 N   0  0  0  0  0  0  0  0  0  0  0  0
    7.1238   14.7969   24.8032 N   0  0  0  0  0  0  0  0  0  0  0  0
    5.7322   13.5396   26.1783 C   0  0  0  0  0  0  0  0  0  0  0  0
    5.0990   14.5607   26.4678 O   0  0  0  0  0  0  0  0  0  0  0  0
    5.3735   12.2497   26.8687 C   0  0  1  0  0  0  0  0  0  0  0  0
    6.2222   12.0643   28.1151 C   0  0  0  0  0  0  0  0  0  0  0  0
    5.5150   12.6954   29.2927 C   0  0  0  0  0  0  0  0  0  0  0  0
    3.8169   12.1550   29.0387 S   0  0  0  0  0  0  0  0  0  0  0  0
    3.9059   12.2574   27.2406 C   0  0  0  0  0  0  0  0  0  0  0  0
  1  2  1  0
  2  3  2  0
  3  4  1  0
  4  5  2  0
  5  6  1  0
  6  7  2  0
  7  8  1  0
  8  9  1  0
  8 10  1  0
 10 11  2  0
 12 10  1  1
 12 13  1  0
 13 14  1  0
 14 15  1  0
 15 16  1  0
  7  2  1  0
 16 12  1  0
M  END
$$$$

     RDKit          3D

 25 26  0  0  0  0  0  0  0  0999 V2000
    5.0807   12.5029   26.1217 C   0  0  0  0  0  0  0  0  0  0  0  0
    6.0205   11.3417   26.3142 C   0  0  0  0  0  0  0  0  0  0  0  0
    6.4684   11.3456   27.7521 C   0  0  0  0  0  0  0  0  0  0  0  0
    5.2510   10.0515   26.1804 C   0  0  0  0  0  0  0  0  0  0  0  0
    7.1712   11.3805   25.3805 C   0  0  0  0  0  0  0  0  0  0  0  0
    7.8156   12.4661   24.7138 C   0  0  0  0  0  0  0  0  0  0  0  0
    8.8757   11.8961   24.0414 C   0  0  0  0  0  0  0  0  0  0  0  0
    9.9313   12.3646   23.2882 N   0  0  0  0  0  0  0  0  0  0  0  0
   10.5545   13.5689   23.5726 C   0  0  0  0  0  0  0  0  0  0  0  0
   10.1780   14.3343   24.4567 O   0  0  0  0  0  0  0  0  0  0  0  0
   11.8254   13.7206   22.7651 C   0  0  2  0  0  0  0  0  0  0  0  0
   12.7681   12.7864   23.3940 N   0  0  0  0  0  0  0  0  0  0  0  0
   12.3937   15.0969   22.9719 C   0  0  0  0  0  0  0  0  0  0  0  0
   12.7836   15.2405   24.2551 F   0  0  0  0  0  0  0  0  0  0  0  0
   11.5265   16.0842   22.6903 F   0  0  0  0  0  0  0  0  0  0  0  0
   13.4643   15.3161   22.1857 F   0  0  0  0  0  0  0  0  0  0  0  0
    8.8145   10.5849   24.3751 N   0  0  0  0  0  0  0  0  0  0  0  0
    9.8346    9.6058   24.1716 C   0  0  0  0  0  0  0  0  0  0  0  0
    9.6546    9.0654   22.8580 C   0  0  0  0  0  0  0  0  0  0  0  0
    8.6474    8.2030   22.5795 C   0  0  0  0  0  0  0  0  0  0  0  0
    8.6873    7.4654   21.4144 C   0  0  0  0  0  0  0  0  0  0  0  0
    9.4109    7.8499   20.3769 N   0  0  0  0  0  0  0  0  0  0  0  0
   10.2681    8.8064   20.7474 C   0  0  0  0  0  0  0  0  0  0  0  0
   10.5148    9.4279   21.9136 C   0  0  0  0  0  0  0  0  0  0  0  0
    7.7849   10.2282   25.1267 N   0  0  0  0  0  0  0  0  0  0  0  0
  1  2  1  0
  2  3  1  0
  2  4  1  0
  2  5  1  0
  5  6  1  0
  6  7  2  0
  7  8  1  0
  8  9  1  0
  9 10  2  0
  9 11  1  0
 11 12  1  1
 11 13  1  0
 13 14  1  0
 13 15  1  0
 13 16  1  0
  7 17  1  0
 17 18  1  0
 18 19  1  0
 19 20  2  0
 20 21  1  0
 21 22  2  0
 22 23  1  0
 23 24  2  0
 17 25  1  0
 25  5  2  0
 24 19  1  0
M  END
$$$$

     RDKit          3D

 26 28  0  0  0  0  0  0  0  0999 V2000
   14.0269   13.2541   25.0097 N   0  0  0  0  0  0  0  0  0  0  0  0
   13.3184   13.7941   24.2677 C   0  0  0  0  0  0  0  0  0  0  0  0
   12.4862   14.4147   23.2460 C   0  0  0  0  0  0  0  0  0  0  0  0
   11.4202   13.4667   22.7612 C   0  0  0  0  0  0  0  0  0  0  0  0
   10.2726   13.2551   23.6913 C   0  0  0  0  0  0  0  0  0  0  0  0
    9.9452   14.0270   24.5825 O   0  0  0  0  0  0  0  0  0  0  0  0
    9.6681   12.0624   23.3711 N   0  0  0  0  0  0  0  0  0  0  0  0
    8.6581   11.5255   24.1305 C   0  0  0  0  0  0  0  0  0  0  0  0
    7.7333   12.0375   25.0258 C   0  0  0  0  0  0  0  0  0  0  0  0
    7.0826   10.9035   25.5913 C   0  0  0  0  0  0  0  0  0  0  0  0
    6.0831   10.7733   26.6528 C   0  0  0  0  0  0  0  0  0  0  0  0
    5.0542   11.6567   26.9169 C   0  0  0  0  0  0  0  0  0  0  0  0
    4.0759   11.2987   27.8799 C   0  0  0  0  0  0  0  0  0  0  0  0
    4.1182   10.1106   28.6067 C   0  0  0  0  0  0  0  0  0  0  0  0
    5.1627    9.2550   28.3779 C   0  0  0  0  0  0  0  0  0  0  0  0
    6.1056    9.6097   27.4209 C   0  0  0  0  0  0  0  0  0  0  0  0
    7.5523    9.7860   25.0170 N   0  0  0  0  0  0  0  0  0  0  0  0
    8.4943   10.1765   24.1645 N   0  0  0  0  0  0  0  0  0  0  0  0
    9.1703    9.1615   23.3786 C   0  0  0  0  0  0  0  0  0  0  0  0
   10.6530    9.3142   23.5056 C   0  0  0  0  0  0  0  0  0  0  0  0
   11.2967    8.1251   23.1367 O   0  0  0  0  0  0  0  0  0  0  0  0
   13.3555   14.7045   22.0553 C   0  0  0  0  0  0  0  0  0  0  0  0
   12.6330   15.2958   20.8921 C   0  0  0  0  0  0  0  0  0  0  0  0
   11.6673   16.3124   21.4189 C   0  0  0  0  0  0  0  0  0  0  0  0
   12.0696   16.8207   22.7663 C   0  0  0  0  0  0  0  0  0  0  0  0
   11.9448   15.7124   23.7726 C   0  0  0  0  0  0  0  0  0  0  0  0
  1  2  3  0
  2  3  1  0
  3  4  1  0
  4  5  1  0
  5  6  2  0
  5  7  1  0
  7  8  1  0
  8  9  2  0
  9 10  1  0
 10 11  1  0
 11 12  2  0
 12 13  1  0
 13 14  2  0
 14 15  1  0
 15 16  2  0
 10 17  2  0
 17 18  1  0
 18 19  1  0
 19 20  1  0
 20 21  1  0
  3 22  1  0
 22 23  1  0
 23 24  1  0
 24 25  1  0
 25 26  1  0
 26  3  1  0
 18  8  1  0
 16 11  1  0
M  END
$$$$

     RDKit          3D

 18 18  0  0  0  0  0  0  0  0999 V2000
   11.1957    7.8666   23.1716 C   0  0  0  0  0  0  0  0  0  0  0  0
    9.9834    8.4700   23.5910 N   0  0  0  0  0  0  0  0  0  0  0  0
    9.6883    9.6258   22.9851 C   0  0  0  0  0  0  0  0  0  0  0  0
   10.1345    9.9554   21.9048 O   0  0  0  0  0  0  0  0  0  0  0  0
    8.8838   10.5289   23.7875 C   0  0  0  0  0  0  0  0  0  0  0  0
    7.9615   10.0456   24.6865 C   0  0  0  0  0  0  0  0  0  0  0  0
    7.1555   10.8446   25.4244 N   0  0  0  0  0  0  0  0  0  0  0  0
    7.3000   12.1791   25.2653 C   0  0  0  0  0  0  0  0  0  0  0  0
    8.2504   12.7470   24.4494 C   0  0  0  0  0  0  0  0  0  0  0  0
    9.0689   11.8993   23.7184 C   0  0  0  0  0  0  0  0  0  0  0  0
   10.1119   12.4141   22.9518 N   0  0  0  0  0  0  0  0  0  0  0  0
   10.8650   13.5082   23.2963 C   0  0  0  0  0  0  0  0  0  0  0  0
   10.8368   14.0427   24.4053 O   0  0  0  0  0  0  0  0  0  0  0  0
   11.7281   13.9488   22.1441 C   0  0  1  0  0  0  0  0  0  0  0  0
   10.8606   14.3034   20.9551 C   0  0  0  0  0  0  0  0  0  0  0  0
   12.6744   15.0646   22.5026 C   0  0  0  0  0  0  0  0  0  0  0  0
   11.9818   16.2789   23.0362 C   0  0  0  0  0  0  0  0  0  0  0  0
   13.4100   15.5214   21.2775 C   0  0  0  0  0  0  0  0  0  0  0  0
  1  2  1  0
  2  3  1  0
  3  4  2  0
  3  5  1  0
  5  6  2  0
  6  7  1  0
  7  8  2  0
  8  9  1  0
  9 10  2  0
 10 11  1  0
 11 12  1  0
 12 13  2  0
 12 14  1  0
 14 15  1  6
 14 16  1  0
 16 17  1  0
 16 18  1  0
 10  5  1  0
M  END
$$$$

     RDKit          3D

 18 18  0  0  0  0  0  0  0  0999 V2000
   11.1957    7.8666   23.1716 C   0  0  0  0  0  0  0  0  0  0  0  0
    9.9834    8.4700   23.5910 N   0  0  0  0  0  0  0  0  0  0  0  0
    9.6883    9.6258   22.9851 C   0  0  0  0  0  0  0  0  0  0  0  0
   10.1345    9.9554   21.9048 O   0  0  0  0  0  0  0  0  0  0  0  0
    8.8838   10.5289   23.7875 C   0  0  0  0  0  0  0  0  0  0  0  0
    7.9615   10.0456   24.6865 C   0  0  0  0  0  0  0  0  0  0  0  0
    7.1555   10.8446   25.4244 N   0  0  0  0  0  0  0  0  0  0  0  0
    7.3000   12.1791   25.2653 C   0  0  0  0  0  0  0  0  0  0  0  0
    8.2504   12.7470   24.4494 C   0  0  0  0  0  0  0  0  0  0  0  0
    9.0689   11.8993   23.7184 C   0  0  0  0  0  0  0  0  0  0  0  0
   10.1119   12.4141   22.9518 N   0  0  0  0  0  0  0  0  0  0  0  0
   10.8650   13.5082   23.2963 C   0  0  0  0  0  0  0  0  0  0  0  0
   10.8368   14.0427   24.4053 O   0  0  0  0  0  0  0  0  0  0  0  0
   11.7281   13.9488   22.1441 C   0  0  1  0  0  0  0  0  0  0  0  0
   10.8606   14.3034   20.9551 C   0  0  0  0  0  0  0  0  0  0  0  0
   12.6744   15.0646   22.5026 C   0  0  0  0  0  0  0  0  0  0  0  0
   11.9818   16.2789   23.0362 C   0  0  0  0  0  0  0  0  0  0  0  0
   13.4100   15.5214   21.2775 C   0  0  0  0  0  0  0  0  0  0  0  0
  1  2  1  0
  2  3  1  0
  3  4  2  0
  3  5  1  0
  5  6  2  0
  6  7  1  0
  7  8  2  0
  8  9  1  0
  9 10  2  0
 10 11  1  0
 11 12  1  0
 12 13  2  0
 12 14  1  0
 14 15  1  6
 14 16  1  0
 16 17  1  0
 16 18  1  0
 10  5  1  0
M  END
$$$$

     RDKit          3D

 19 20  0  0  0  0  0  0  0  0999 V2000
    6.0622   14.9780   29.8314 C   0  0  0  0  0  0  0  0  0  0  0  0
    5.8233   13.8309   28.9429 C   0  0  0  0  0  0  0  0  0  0  0  0
    6.5491   13.4968   27.7819 C   0  0  0  0  0  0  0  0  0  0  0  0
    5.9740   12.3335   27.3261 C   0  0  0  0  0  0  0  0  0  0  0  0
    4.9765   12.0626   28.2123 N   0  0  0  0  0  0  0  0  0  0  0  0
    4.8324   12.9650   29.1923 N   0  0  0  0  0  0  0  0  0  0  0  0
    4.0748   10.9426   28.1110 C   0  0  0  0  0  0  0  0  0  0  0  0
    4.7196    9.7918   27.3768 C   0  0  2  0  0  0  0  0  0  0  0  0
    5.4238    8.8888   28.3513 C   0  0  0  0  0  0  0  0  0  0  0  0
    5.5918   10.1815   26.1889 C   0  0  0  0  0  0  0  0  0  0  0  0
    6.2568   11.4837   26.2595 N   0  0  0  0  0  0  0  0  0  0  0  0
    7.2252   11.9412   25.3332 C   0  0  0  0  0  0  0  0  0  0  0  0
    7.6161   13.1095   25.2727 O   0  0  0  0  0  0  0  0  0  0  0  0
    7.9142   11.0278   24.3451 C   0  0  0  0  0  0  0  0  0  0  0  0
    8.3572   11.5016   23.3041 O   0  0  0  0  0  0  0  0  0  0  0  0
    8.1163    9.6538   24.8147 C   0  0  0  0  0  0  0  0  0  0  0  0
    9.2459    9.0732   24.3882 F   0  0  0  0  0  0  0  0  0  0  0  0
    7.1214    8.7992   24.5321 F   0  0  0  0  0  0  0  0  0  0  0  0
    8.1280    9.7246   26.1465 F   0  0  0  0  0  0  0  0  0  0  0  0
  1  2  1  0
  2  3  1  0
  3  4  2  0
  4  5  1  0
  5  6  1  0
  5  7  1  0
  7  8  1  0
  8  9  1  1
  8 10  1  0
 10 11  1  0
 11 12  1  0
 12 13  2  0
 12 14  1  0
 14 15  2  0
 14 16  1  0
 16 17  1  0
 16 18  1  0
 16 19  1  0
  6  2  2  0
 11  4  1  0
M  END
$$$$

     RDKit          3D

 18 18  0  0  0  0  0  0  0  0999 V2000
    3.7919   12.0399   27.2279 C   0  0  0  0  0  0  0  0  0  0  0  0
    5.2878   12.1899   27.0496 C   0  0  1  0  0  0  0  0  0  0  0  0
    5.5681   13.4701   26.2970 C   0  0  0  0  0  0  0  0  0  0  0  0
    4.9053   14.4881   26.5106 O   0  0  0  0  0  0  0  0  0  0  0  0
    6.6427   13.4825   25.4491 N   0  0  0  0  0  0  0  0  0  0  0  0
    7.4411   12.4322   25.0002 C   0  0  0  0  0  0  0  0  0  0  0  0
    8.5084   12.8194   24.2078 C   0  0  0  0  0  0  0  0  0  0  0  0
    9.3347   11.8469   23.6569 C   0  0  0  0  0  0  0  0  0  0  0  0
   10.4191   12.2672   22.8690 N   0  0  0  0  0  0  0  0  0  0  0  0
    9.0551   10.5049   23.8915 C   0  0  0  0  0  0  0  0  0  0  0  0
    9.7497    9.4656   23.2169 C   0  0  0  0  0  0  0  0  0  0  0  0
   10.3023    8.6928   22.5601 N   0  0  0  0  0  0  0  0  0  0  0  0
    8.0043   10.2061   24.7340 C   0  0  0  0  0  0  0  0  0  0  0  0
    7.1934   11.1392   25.2980 N   0  0  0  0  0  0  0  0  0  0  0  0
    6.0130   12.0707   28.3866 C   0  0  0  0  0  0  0  0  0  0  0  0
    5.2523   12.7337   29.5153 C   0  0  0  0  0  0  0  0  0  0  0  0
    6.1586   10.5991   28.7138 C   0  0  0  0  0  0  0  0  0  0  0  0
    7.3885   12.6915   28.3669 C   0  0  0  0  0  0  0  0  0  0  0  0
  2  1  1  1
  2  3  1  0
  3  4  2  0
  3  5  1  0
  5  6  1  0
  6  7  2  0
  7  8  1  0
  8  9  1  0
  8 10  2  0
 10 11  1  0
 11 12  3  0
 10 13  1  0
 13 14  2  0
  2 15  1  0
 15 16  1  0
 15 17  1  0
 15 18  1  0
 14  6  1  0
M  END
$$$$

     RDKit          3D

 18 18  0  0  0  0  0  0  0  0999 V2000
    3.7919   12.0399   27.2279 C   0  0  0  0  0  0  0  0  0  0  0  0
    5.2878   12.1899   27.0496 C   0  0  1  0  0  0  0  0  0  0  0  0
    5.5681   13.4701   26.2970 C   0  0  0  0  0  0  0  0  0  0  0  0
    4.9053   14.4881   26.5106 O   0  0  0  0  0  0  0  0  0  0  0  0
    6.6427   13.4825   25.4491 N   0  0  0  0  0  0  0  0  0  0  0  0
    7.4411   12.4322   25.0002 C   0  0  0  0  0  0  0  0  0  0  0  0
    8.5084   12.8194   24.2078 C   0  0  0  0  0  0  0  0  0  0  0  0
    9.3347   11.8469   23.6569 C   0  0  0  0  0  0  0  0  0  0  0  0
   10.4191   12.2672   22.8690 N   0  0  0  0  0  0  0  0  0  0  0  0
    9.0551   10.5049   23.8915 C   0  0  0  0  0  0  0  0  0  0  0  0
    9.7497    9.4656   23.2169 C   0  0  0  0  0  0  0  0  0  0  0  0
   10.3023    8.6928   22.5601 N   0  0  0  0  0  0  0  0  0  0  0  0
    8.0043   10.2061   24.7340 C   0  0  0  0  0  0  0  0  0  0  0  0
    7.1934   11.1392   25.2980 N   0  0  0  0  0  0  0  0  0  0  0  0
    6.0130   12.0707   28.3866 C   0  0  0  0  0  0  0  0  0  0  0  0
    5.2523   12.7337   29.5153 C   0  0  0  0  0  0  0  0  0  0  0  0
    6.1586   10.5991   28.7138 C   0  0  0  0  0  0  0  0  0  0  0  0
    7.3885   12.6915   28.3669 C   0  0  0  0  0  0  0  0  0  0  0  0
  2  1  1  1
  2  3  1  0
  3  4  2  0
  3  5  1  0
  5  6  1  0
  6  7  2  0
  7  8  1  0
  8  9  1  0
  8 10  2  0
 10 11  1  0
 11 12  3  0
 10 13  1  0
 13 14  2  0
  2 15  1  0
 15 16  1  0
 15 17  1  0
 15 18  1  0
 14  6  1  0
M  END
$$$$

     RDKit          3D

 24 25  0  0  0  0  0  0  0  0999 V2000
    6.2888    9.7537   26.0046 C   0  0  0  0  0  0  0  0  0  0  0  0
    7.3880   10.0535   25.1244 N   0  0  0  0  0  0  0  0  0  0  0  0
    7.6624   11.2854   24.6871 C   0  0  0  0  0  0  0  0  0  0  0  0
    8.7676   11.1864   23.8930 C   0  0  0  0  0  0  0  0  0  0  0  0
    9.4019   12.2800   23.3413 N   0  0  0  0  0  0  0  0  0  0  0  0
    8.8216   13.5116   23.5678 C   0  0  0  0  0  0  0  0  0  0  0  0
    7.9695   14.0340   22.8567 O   0  0  0  0  0  0  0  0  0  0  0  0
    9.1916   14.1165   24.8641 C   0  0  0  0  0  0  0  0  0  0  0  0
   10.5252   14.5764   25.0144 C   0  0  0  0  0  0  0  0  0  0  0  0
   11.5711   15.0178   25.2457 N   0  0  0  0  0  0  0  0  0  0  0  0
    8.3988   14.1350   25.9515 C   0  0  0  0  0  0  0  0  0  0  0  0
    7.1360   13.5776   26.4351 C   0  0  0  0  0  0  0  0  0  0  0  0
    5.9204   13.5534   25.7554 C   0  0  0  0  0  0  0  0  0  0  0  0
    4.8140   12.8804   26.3091 C   0  0  0  0  0  0  0  0  0  0  0  0
    4.9128   12.2366   27.5438 C   0  0  0  0  0  0  0  0  0  0  0  0
    3.5755   11.3805   28.2015 Cl  0  0  0  0  0  0  0  0  0  0  0  0
    6.1062   12.2769   28.2464 C   0  0  0  0  0  0  0  0  0  0  0  0
    7.1958   12.9538   27.6918 C   0  0  0  0  0  0  0  0  0  0  0  0
    9.0397    9.7990   23.8183 C   0  0  0  0  0  0  0  0  0  0  0  0
   10.1971    9.1996   23.0871 C   0  0  0  0  0  0  0  0  0  0  0  0
   11.2818    9.9062   23.4655 F   0  0  0  0  0  0  0  0  0  0  0  0
   10.0637    9.3416   21.7512 F   0  0  0  0  0  0  0  0  0  0  0  0
   10.4753    7.9164   23.3405 F   0  0  0  0  0  0  0  0  0  0  0  0
    8.1438    9.1160   24.5631 N   0  0  0  0  0  0  0  0  0  0  0  0
  1  2  1  0
  2  3  1  0
  3  4  2  0
  4  5  1  0
  5  6  1  0
  6  7  2  0
  6  8  1  0
  8  9  1  0
  9 10  3  0
  8 11  2  0
 11 12  1  0
 12 13  2  0
 13 14  1  0
 14 15  2  0
 15 16  1  0
 15 17  1  0
 17 18  2  0
  4 19  1  0
 19 20  1  0
 20 21  1  0
 20 22  1  0
 20 23  1  0
 19 24  2  0
 24  2  1  0
 18 12  1  0
M  END
$$$$

     RDKit          3D

 20 21  0  0  0  0  0  0  0  0999 V2000
   12.1364   16.5360   22.2693 N   0  0  0  0  0  0  0  0  0  0  0  0
   12.0261   15.3985   22.4650 C   0  0  0  0  0  0  0  0  0  0  0  0
   11.7606   14.0214   22.8514 C   0  0  0  0  0  0  0  0  0  0  0  0
   11.0355   14.0819   24.1780 C   0  0  0  0  0  0  0  0  0  0  0  0
   11.5284   14.5742   25.1950 O   0  0  0  0  0  0  0  0  0  0  0  0
    9.7576   13.5818   24.2499 N   0  0  0  0  0  0  0  0  0  0  0  0
    9.4683   12.3635   23.7355 C   0  0  0  0  0  0  0  0  0  0  0  0
   10.2428   11.5831   22.9335 C   0  0  0  0  0  0  0  0  0  0  0  0
    9.6599   10.3322   22.9660 C   0  0  0  0  0  0  0  0  0  0  0  0
   10.3169    9.1459   22.4422 C   0  0  0  0  0  0  0  0  0  0  0  0
   11.3175    8.7896   23.2672 F   0  0  0  0  0  0  0  0  0  0  0  0
   10.8405    9.4003   21.2367 F   0  0  0  0  0  0  0  0  0  0  0  0
    9.4787    8.1302   22.2543 F   0  0  0  0  0  0  0  0  0  0  0  0
    8.4841   10.3792   23.5969 N   0  0  0  0  0  0  0  0  0  0  0  0
    8.4496   11.5754   24.1695 N   0  0  0  0  0  0  0  0  0  0  0  0
    7.7394   11.6338   25.4251 C   0  0  0  0  0  0  0  0  0  0  0  0
    6.3300   12.1632   25.3265 C   0  0  0  0  0  0  0  0  0  0  0  0
    5.4626   11.1430   26.0383 C   0  0  0  0  0  0  0  0  0  0  0  0
    6.1476    9.8425   25.7435 C   0  0  0  0  0  0  0  0  0  0  0  0
    7.5868   10.2133   25.9356 C   0  0  0  0  0  0  0  0  0  0  0  0
  1  2  3  0
  2  3  1  0
  3  4  1  0
  4  5  2  0
  4  6  1  0
  6  7  1  0
  7  8  2  0
  8  9  1  0
  9 10  1  0
 10 11  1  0
 10 12  1  0
 10 13  1  0
  9 14  2  0
 14 15  1  0
 15 16  1  0
 16 17  1  0
 17 18  1  0
 18 19  1  0
 19 20  1  0
 15  7  1  0
 20 16  1  0
M  ISO  1   3  14
M  END
$$$$

     RDKit          3D

 20 21  0  0  0  0  0  0  0  0999 V2000
   12.1364   16.5360   22.2693 N   0  0  0  0  0  0  0  0  0  0  0  0
   12.0261   15.3985   22.4650 C   0  0  0  0  0  0  0  0  0  0  0  0
   11.7606   14.0214   22.8514 C   0  0  0  0  0  0  0  0  0  0  0  0
   11.0355   14.0819   24.1780 C   0  0  0  0  0  0  0  0  0  0  0  0
   11.5284   14.5742   25.1950 O   0  0  0  0  0  0  0  0  0  0  0  0
    9.7576   13.5818   24.2499 N   0  0  0  0  0  0  0  0  0  0  0  0
    9.4683   12.3635   23.7355 C   0  0  0  0  0  0  0  0  0  0  0  0
   10.2428   11.5831   22.9335 C   0  0  0  0  0  0  0  0  0  0  0  0
    9.6599   10.3322   22.9660 C   0  0  0  0  0  0  0  0  0  0  0  0
   10.3169    9.1459   22.4422 C   0  0  0  0  0  0  0  0  0  0  0  0
   11.3175    8.7896   23.2672 F   0  0  0  0  0  0  0  0  0  0  0  0
   10.8405    9.4003   21.2367 F   0  0  0  0  0  0  0  0  0  0  0  0
    9.4787    8.1302   22.2543 F   0  0  0  0  0  0  0  0  0  0  0  0
    8.4841   10.3792   23.5969 N   0  0  0  0  0  0  0  0  0  0  0  0
    8.4496   11.5754   24.1695 N   0  0  0  0  0  0  0  0  0  0  0  0
    7.7394   11.6338   25.4251 C   0  0  0  0  0  0  0  0  0  0  0  0
    6.3300   12.1632   25.3265 C   0  0  0  0  0  0  0  0  0  0  0  0
    5.4626   11.1430   26.0383 C   0  0  0  0  0  0  0  0  0  0  0  0
    6.1476    9.8425   25.7435 C   0  0  0  0  0  0  0  0  0  0  0  0
    7.5868   10.2133   25.9356 C   0  0  0  0  0  0  0  0  0  0  0  0
  1  2  3  0
  2  3  1  0
  3  4  1  0
  4  5  2  0
  4  6  1  0
  6  7  1  0
  7  8  2  0
  8  9  1  0
  9 10  1  0
 10 11  1  0
 10 12  1  0
 10 13  1  0
  9 14  2  0
 14 15  1  0
 15 16  1  0
 16 17  1  0
 17 18  1  0
 18 19  1  0
 19 20  1  0
 15  7  1  0
 20 16  1  0
M  ISO  1   3  14
M  END
$$$$

     RDKit          3D

 20 21  0  0  0  0  0  0  0  0999 V2000
   12.1364   16.5360   22.2693 N   0  0  0  0  0  0  0  0  0  0  0  0
   12.0261   15.3985   22.4650 C   0  0  0  0  0  0  0  0  0  0  0  0
   11.7606   14.0214   22.8514 C   0  0  0  0  0  0  0  0  0  0  0  0
   11.0355   14.0819   24.1780 C   0  0  0  0  0  0  0  0  0  0  0  0
   11.5284   14.5742   25.1950 O   0  0  0  0  0  0  0  0  0  0  0  0
    9.7576   13.5818   24.2499 N   0  0  0  0  0  0  0  0  0  0  0  0
    9.4683   12.3635   23.7355 C   0  0  0  0  0  0  0  0  0  0  0  0
   10.2428   11.5831   22.9335 C   0  0  0  0  0  0  0  0  0  0  0  0
    9.6599   10.3322   22.9660 C   0  0  0  0  0  0  0  0  0  0  0  0
   10.3169    9.1459   22.4422 C   0  0  0  0  0  0  0  0  0  0  0  0
   11.3175    8.7896   23.2672 F   0  0  0  0  0  0  0  0  0  0  0  0
   10.8405    9.4003   21.2367 F   0  0  0  0  0  0  0  0  0  0  0  0
    9.4787    8.1302   22.2543 F   0  0  0  0  0  0  0  0  0  0  0  0
    8.4841   10.3792   23.5969 N   0  0  0  0  0  0  0  0  0  0  0  0
    8.4496   11.5754   24.1695 N   0  0  0  0  0  0  0  0  0  0  0  0
    7.7394   11.6338   25.4251 C   0  0  0  0  0  0  0  0  0  0  0  0
    6.3300   12.1632   25.3265 C   0  0  0  0  0  0  0  0  0  0  0  0
    5.4626   11.1430   26.0383 C   0  0  0  0  0  0  0  0  0  0  0  0
    6.1476    9.8425   25.7435 C   0  0  0  0  0  0  0  0  0  0  0  0
    7.5868   10.2133   25.9356 C   0  0  0  0  0  0  0  0  0  0  0  0
  1  2  3  0
  2  3  1  0
  3  4  1  0
  4  5  2  0
  4  6  1  0
  6  7  1  0
  7  8  2  0
  8  9  1  0
  9 10  1  0
 10 11  1  0
 10 12  1  0
 10 13  1  0
  9 14  2  0
 14 15  1  0
 15 16  1  0
 16 17  1  0
 17 18  1  0
 18 19  1  0
 19 20  1  0
 15  7  1  0
 20 16  1  0
M  ISO  1   3  14
M  END
$$$$

     RDKit          3D

 20 21  0  0  0  0  0  0  0  0999 V2000
   12.1364   16.5360   22.2693 N   0  0  0  0  0  0  0  0  0  0  0  0
   12.0261   15.3985   22.4650 C   0  0  0  0  0  0  0  0  0  0  0  0
   11.7606   14.0214   22.8514 C   0  0  0  0  0  0  0  0  0  0  0  0
   11.0355   14.0819   24.1780 C   0  0  0  0  0  0  0  0  0  0  0  0
   11.5284   14.5742   25.1950 O   0  0  0  0  0  0  0  0  0  0  0  0
    9.7576   13.5818   24.2499 N   0  0  0  0  0  0  0  0  0  0  0  0
    9.4683   12.3635   23.7355 C   0  0  0  0  0  0  0  0  0  0  0  0
   10.2428   11.5831   22.9335 C   0  0  0  0  0  0  0  0  0  0  0  0
    9.6599   10.3322   22.9660 C   0  0  0  0  0  0  0  0  0  0  0  0
   10.3169    9.1459   22.4422 C   0  0  0  0  0  0  0  0  0  0  0  0
   11.3175    8.7896   23.2672 F   0  0  0  0  0  0  0  0  0  0  0  0
   10.8405    9.4003   21.2367 F   0  0  0  0  0  0  0  0  0  0  0  0
    9.4787    8.1302   22.2543 F   0  0  0  0  0  0  0  0  0  0  0  0
    8.4841   10.3792   23.5969 N   0  0  0  0  0  0  0  0  0  0  0  0
    8.4496   11.5754   24.1695 N   0  0  0  0  0  0  0  0  0  0  0  0
    7.7394   11.6338   25.4251 C   0  0  0  0  0  0  0  0  0  0  0  0
    6.3300   12.1632   25.3265 C   0  0  0  0  0  0  0  0  0  0  0  0
    5.4626   11.1430   26.0383 C   0  0  0  0  0  0  0  0  0  0  0  0
    6.1476    9.8425   25.7435 C   0  0  0  0  0  0  0  0  0  0  0  0
    7.5868   10.2133   25.9356 C   0  0  0  0  0  0  0  0  0  0  0  0
  1  2  3  0
  2  3  1  0
  3  4  1  0
  4  5  2  0
  4  6  1  0
  6  7  1  0
  7  8  2  0
  8  9  1  0
  9 10  1  0
 10 11  1  0
 10 12  1  0
 10 13  1  0
  9 14  2  0
 14 15  1  0
 15 16  1  0
 16 17  1  0
 17 18  1  0
 18 19  1  0
 19 20  1  0
 15  7  1  0
 20 16  1  0
M  ISO  1   3  14
M  END
$$$$

     RDKit          3D

 23 23  0  0  0  0  0  0  0  0999 V2000
   12.9661   13.1815   23.4254 C   0  0  0  0  0  0  0  0  0  0  0  0
   11.7999   13.7022   22.6222 C   0  0  2  0  0  0  0  0  0  0  0  0
   11.9336   15.1533   22.5371 C   0  0  0  0  0  0  0  0  0  0  0  0
   12.0445   16.3093   22.5309 N   0  0  0  0  0  0  0  0  0  0  0  0
   10.5870   13.3050   23.4230 C   0  0  0  0  0  0  0  0  0  0  0  0
   10.0736   14.0196   24.2845 O   0  0  0  0  0  0  0  0  0  0  0  0
   10.2340   11.9930   23.1592 N   0  0  0  0  0  0  0  0  0  0  0  0
    9.2435   11.2952   23.8239 C   0  0  0  0  0  0  0  0  0  0  0  0
    8.2600   11.7797   24.6574 C   0  0  0  0  0  0  0  0  0  0  0  0
    7.5770   10.6911   25.1309 N   0  0  0  0  0  0  0  0  0  0  0  0
    6.2376   10.7862   25.6793 C   0  0  0  0  0  0  0  0  0  0  0  0
    5.9434   10.1099   26.9836 C   0  0  0  0  0  0  0  0  0  0  0  0
    6.5940   10.2205   28.0094 O   0  0  0  0  0  0  0  0  0  0  0  0
    4.7128    9.5201   26.8946 O   0  0  0  0  0  0  0  0  0  0  0  0
    4.1242    8.8269   28.0188 C   0  0  0  0  0  0  0  0  0  0  0  0
    3.0420    7.9625   27.4249 C   0  0  0  0  0  0  0  0  0  0  0  0
    5.0844    7.9465   28.7614 C   0  0  0  0  0  0  0  0  0  0  0  0
    3.4661    9.7901   28.9783 C   0  0  0  0  0  0  0  0  0  0  0  0
    8.0019    9.5418   24.5810 N   0  0  0  0  0  0  0  0  0  0  0  0
    9.0558    9.8891   23.8160 C   0  0  0  0  0  0  0  0  0  0  0  0
    9.9016    8.8673   23.0989 C   0  0  0  0  0  0  0  0  0  0  0  0
    9.9103    9.1494   21.7633 F   0  0  0  0  0  0  0  0  0  0  0  0
   11.1993    9.0250   23.4876 F   0  0  0  0  0  0  0  0  0  0  0  0
  2  1  1  1
  2  3  1  0
  3  4  3  0
  2  5  1  0
  5  6  2  0
  5  7  1  0
  7  8  1  0
  8  9  2  0
  9 10  1  0
 10 11  1  0
 11 12  1  0
 12 13  2  0
 12 14  1  0
 14 15  1  0
 15 16  1  0
 15 17  1  0
 15 18  1  0
 10 19  1  0
 19 20  2  0
 20 21  1  0
 21 22  1  0
 21 23  1  0
 20  8  1  0
M  END
$$$$

     RDKit          3D

 26 26  0  0  0  0  0  0  0  0999 V2000
    9.7589    8.3034   21.6681 C   0  0  0  0  0  0  0  0  0  0  0  0
    9.7871    9.5514   22.2931 O   0  0  0  0  0  0  0  0  0  0  0  0
    9.2270    9.3882   23.5063 C   0  0  0  0  0  0  0  0  0  0  0  0
    9.1012    8.3495   24.1115 O   0  0  0  0  0  0  0  0  0  0  0  0
    8.6225   10.5775   23.9783 C   0  0  0  0  0  0  0  0  0  0  0  0
    7.4968   10.7593   24.7695 C   0  0  0  0  0  0  0  0  0  0  0  0
    6.7152    9.8054   25.2818 O   0  0  0  0  0  0  0  0  0  0  0  0
    5.7472   10.3416   26.1492 C   0  0  0  0  0  0  0  0  0  0  0  0
    6.3787   10.4790   27.4939 C   0  0  0  0  0  0  0  0  0  0  0  0
    7.0625   11.7204   27.5183 O   0  0  0  0  0  0  0  0  0  0  0  0
    7.1079   12.0279   24.8646 N   0  0  0  0  0  0  0  0  0  0  0  0
    8.1018   12.6756   24.2769 N   0  0  0  0  0  0  0  0  0  0  0  0
    7.9980   14.1100   24.2159 C   0  0  0  0  0  0  0  0  0  0  0  0
    9.0162   11.8484   23.7099 C   0  0  0  0  0  0  0  0  0  0  0  0
   10.1183   12.2061   23.0115 N   0  0  0  0  0  0  0  0  0  0  0  0
   10.8049   13.3067   23.4194 C   0  0  0  0  0  0  0  0  0  0  0  0
   10.7275   13.8062   24.5394 O   0  0  0  0  0  0  0  0  0  0  0  0
   11.5264   13.8606   22.2524 C   0  0  1  0  0  0  0  0  0  0  0  0
   10.4957   14.4515   21.3940 N   0  0  0  0  0  0  0  0  0  0  0  0
   12.5718   14.8092   22.7493 C   0  0  1  0  0  0  0  0  0  0  0  0
   12.0317   15.9111   23.6219 C   0  0  0  0  0  0  0  0  0  0  0  0
   13.4937   14.0951   23.5556 O   0  0  0  0  0  0  0  0  0  0  0  0
   13.1334   15.4456   21.5229 C   0  0  0  0  0  0  0  0  0  0  0  0
   14.3152   16.0162   21.6978 F   0  0  0  0  0  0  0  0  0  0  0  0
   12.2846   16.4558   21.2228 F   0  0  0  0  0  0  0  0  0  0  0  0
   13.1692   14.6240   20.4703 F   0  0  0  0  0  0  0  0  0  0  0  0
  1  2  1  0
  2  3  1  0
  3  4  2  0
  3  5  1  0
  5  6  1  0
  6  7  1  0
  7  8  1  0
  8  9  1  0
  9 10  1  0
  6 11  2  0
 11 12  1  0
 12 13  1  0
 12 14  1  0
 14 15  1  0
 15 16  1  0
 16 17  2  0
 16 18  1  0
 18 19  1  6
 18 20  1  0
 20 21  1  1
 20 22  1  0
 20 23  1  0
 23 24  1  0
 23 25  1  0
 23 26  1  0
 14  5  2  0
M  END
$$$$

     RDKit          3D

 26 26  0  0  0  0  0  0  0  0999 V2000
    9.7589    8.3034   21.6681 C   0  0  0  0  0  0  0  0  0  0  0  0
    9.7871    9.5514   22.2931 O   0  0  0  0  0  0  0  0  0  0  0  0
    9.2270    9.3882   23.5063 C   0  0  0  0  0  0  0  0  0  0  0  0
    9.1012    8.3495   24.1115 O   0  0  0  0  0  0  0  0  0  0  0  0
    8.6225   10.5775   23.9783 C   0  0  0  0  0  0  0  0  0  0  0  0
    7.4968   10.7593   24.7695 C   0  0  0  0  0  0  0  0  0  0  0  0
    6.7152    9.8054   25.2818 O   0  0  0  0  0  0  0  0  0  0  0  0
    5.7472   10.3416   26.1492 C   0  0  0  0  0  0  0  0  0  0  0  0
    6.3787   10.4790   27.4939 C   0  0  0  0  0  0  0  0  0  0  0  0
    7.0625   11.7204   27.5183 O   0  0  0  0  0  0  0  0  0  0  0  0
    7.1079   12.0279   24.8646 N   0  0  0  0  0  0  0  0  0  0  0  0
    8.1018   12.6756   24.2769 N   0  0  0  0  0  0  0  0  0  0  0  0
    7.9980   14.1100   24.2159 C   0  0  0  0  0  0  0  0  0  0  0  0
    9.0162   11.8484   23.7099 C   0  0  0  0  0  0  0  0  0  0  0  0
   10.1183   12.2061   23.0115 N   0  0  0  0  0  0  0  0  0  0  0  0
   10.8049   13.3067   23.4194 C   0  0  0  0  0  0  0  0  0  0  0  0
   10.7275   13.8062   24.5394 O   0  0  0  0  0  0  0  0  0  0  0  0
   11.5264   13.8606   22.2524 C   0  0  1  0  0  0  0  0  0  0  0  0
   10.4957   14.4515   21.3940 N   0  0  0  0  0  0  0  0  0  0  0  0
   12.5718   14.8092   22.7493 C   0  0  1  0  0  0  0  0  0  0  0  0
   12.0317   15.9111   23.6219 C   0  0  0  0  0  0  0  0  0  0  0  0
   13.4937   14.0951   23.5556 O   0  0  0  0  0  0  0  0  0  0  0  0
   13.1334   15.4456   21.5229 C   0  0  0  0  0  0  0  0  0  0  0  0
   14.3152   16.0162   21.6978 F   0  0  0  0  0  0  0  0  0  0  0  0
   12.2846   16.4558   21.2228 F   0  0  0  0  0  0  0  0  0  0  0  0
   13.1692   14.6240   20.4703 F   0  0  0  0  0  0  0  0  0  0  0  0
  1  2  1  0
  2  3  1  0
  3  4  2  0
  3  5  1  0
  5  6  1  0
  6  7  1  0
  7  8  1  0
  8  9  1  0
  9 10  1  0
  6 11  2  0
 11 12  1  0
 12 13  1  0
 12 14  1  0
 14 15  1  0
 15 16  1  0
 16 17  2  0
 16 18  1  0
 18 19  1  6
 18 20  1  0
 20 21  1  1
 20 22  1  0
 20 23  1  0
 23 24  1  0
 23 25  1  0
 23 26  1  0
 14  5  2  0
M  END
$$$$

     RDKit          3D

 26 26  0  0  0  0  0  0  0  0999 V2000
    9.7589    8.3034   21.6681 C   0  0  0  0  0  0  0  0  0  0  0  0
    9.7871    9.5514   22.2931 O   0  0  0  0  0  0  0  0  0  0  0  0
    9.2270    9.3882   23.5063 C   0  0  0  0  0  0  0  0  0  0  0  0
    9.1012    8.3495   24.1115 O   0  0  0  0  0  0  0  0  0  0  0  0
    8.6225   10.5775   23.9783 C   0  0  0  0  0  0  0  0  0  0  0  0
    7.4968   10.7593   24.7695 C   0  0  0  0  0  0  0  0  0  0  0  0
    6.7152    9.8054   25.2818 O   0  0  0  0  0  0  0  0  0  0  0  0
    5.7472   10.3416   26.1492 C   0  0  0  0  0  0  0  0  0  0  0  0
    6.3787   10.4790   27.4939 C   0  0  0  0  0  0  0  0  0  0  0  0
    7.0625   11.7204   27.5183 O   0  0  0  0  0  0  0  0  0  0  0  0
    7.1079   12.0279   24.8646 N   0  0  0  0  0  0  0  0  0  0  0  0
    8.1018   12.6756   24.2769 N   0  0  0  0  0  0  0  0  0  0  0  0
    7.9980   14.1100   24.2159 C   0  0  0  0  0  0  0  0  0  0  0  0
    9.0162   11.8484   23.7099 C   0  0  0  0  0  0  0  0  0  0  0  0
   10.1183   12.2061   23.0115 N   0  0  0  0  0  0  0  0  0  0  0  0
   10.8049   13.3067   23.4194 C   0  0  0  0  0  0  0  0  0  0  0  0
   10.7275   13.8062   24.5394 O   0  0  0  0  0  0  0  0  0  0  0  0
   11.5264   13.8606   22.2524 C   0  0  1  0  0  0  0  0  0  0  0  0
   10.4957   14.4515   21.3940 N   0  0  0  0  0  0  0  0  0  0  0  0
   12.5718   14.8092   22.7493 C   0  0  1  0  0  0  0  0  0  0  0  0
   12.0317   15.9111   23.6219 C   0  0  0  0  0  0  0  0  0  0  0  0
   13.4937   14.0951   23.5556 O   0  0  0  0  0  0  0  0  0  0  0  0
   13.1334   15.4456   21.5229 C   0  0  0  0  0  0  0  0  0  0  0  0
   14.3152   16.0162   21.6978 F   0  0  0  0  0  0  0  0  0  0  0  0
   12.2846   16.4558   21.2228 F   0  0  0  0  0  0  0  0  0  0  0  0
   13.1692   14.6240   20.4703 F   0  0  0  0  0  0  0  0  0  0  0  0
  1  2  1  0
  2  3  1  0
  3  4  2  0
  3  5  1  0
  5  6  1  0
  6  7  1  0
  7  8  1  0
  8  9  1  0
  9 10  1  0
  6 11  2  0
 11 12  1  0
 12 13  1  0
 12 14  1  0
 14 15  1  0
 15 16  1  0
 16 17  2  0
 16 18  1  0
 18 19  1  6
 18 20  1  0
 20 21  1  1
 20 22  1  0
 20 23  1  0
 23 24  1  0
 23 25  1  0
 23 26  1  0
 14  5  2  0
M  END
$$$$

     RDKit          3D

 24 25  0  0  0  0  0  0  0  0999 V2000
   12.5215   15.3020   22.6420 C   0  0  0  0  0  0  0  0  0  0  0  0
   12.5589   13.8726   23.1218 C   0  0  1  0  0  0  0  0  0  0  0  0
   13.7599   13.6431   23.9729 N   0  0  0  0  0  0  0  0  0  0  0  0
   13.9917   12.3391   24.3218 C   0  0  0  0  0  0  0  0  0  0  0  0
   12.9979   11.6415   24.2144 O   0  0  0  0  0  0  0  0  0  0  0  0
   15.4210   11.7289   24.6011 C   0  0  0  0  0  0  0  0  0  0  0  0
   15.7925   11.6684   25.9384 C   0  0  0  0  0  0  0  0  0  0  0  0
   16.1152   11.5910   27.0452 N   0  0  0  0  0  0  0  0  0  0  0  0
   16.3426   11.2143   23.7106 C   0  0  0  0  0  0  0  0  0  0  0  0
   16.2774   11.1246   22.1847 C   0  0  0  0  0  0  0  0  0  0  0  0
   16.9806   10.4577   21.0535 C   0  0  0  0  0  0  0  0  0  0  0  0
   17.0607   11.8513   21.0847 C   0  0  0  0  0  0  0  0  0  0  0  0
   11.2371   13.5893   23.8447 C   0  0  0  0  0  0  0  0  0  0  0  0
   10.9177   14.1835   24.8802 O   0  0  0  0  0  0  0  0  0  0  0  0
   10.5131   12.5302   23.2899 N   0  0  0  0  0  0  0  0  0  0  0  0
    9.2280   12.3017   23.7632 C   0  0  0  0  0  0  0  0  0  0  0  0
    8.7379   11.1124   24.3749 C   0  0  0  0  0  0  0  0  0  0  0  0
    7.5540   11.5096   24.9744 C   0  0  0  0  0  0  0  0  0  0  0  0
    6.5397   10.8856   25.8158 C   0  0  0  0  0  0  0  0  0  0  0  0
    6.1080    9.7513   25.2445 F   0  0  0  0  0  0  0  0  0  0  0  0
    5.4584   11.6812   26.0167 F   0  0  0  0  0  0  0  0  0  0  0  0
    6.9788   10.5487   27.0479 F   0  0  0  0  0  0  0  0  0  0  0  0
    7.3400   12.7812   24.5689 N   0  0  0  0  0  0  0  0  0  0  0  0
    8.2992   13.2641   23.7894 N   0  0  0  0  0  0  0  0  0  0  0  0
  2  1  1  1
  2  3  1  0
  3  4  1  0
  4  5  2  0
  4  6  1  0
  6  7  1  0
  7  8  3  0
  6  9  2  0
  9 10  1  0
 10 11  1  0
 11 12  1  0
  2 13  1  0
 13 14  2  0
 13 15  1  0
 15 16  1  0
 16 17  1  0
 17 18  2  0
 18 19  1  0
 19 20  1  0
 19 21  1  0
 19 22  1  0
 18 23  1  0
 23 24  1  0
 12 10  1  0
 24 16  2  0
M  END
$$$$

     RDKit          3D

 24 25  0  0  0  0  0  0  0  0999 V2000
   13.0073   14.9618   25.6799 C   0  0  0  0  0  0  0  0  0  0  0  0
   12.0605   14.2189   24.7930 C   0  0  2  0  0  0  0  0  0  0  0  0
   12.2288   14.5123   23.4070 N   0  0  0  0  0  0  0  0  0  0  0  0
   11.7817   13.5178   22.5662 C   0  0  0  0  0  0  0  0  0  0  0  0
   11.5538   12.3775   22.9608 O   0  0  0  0  0  0  0  0  0  0  0  0
   11.2770   14.0589   21.3191 C   0  0  0  0  0  0  0  0  0  0  0  0
    9.8778   14.2083   21.1822 C   0  0  0  0  0  0  0  0  0  0  0  0
    8.7190   14.3084   21.1468 N   0  0  0  0  0  0  0  0  0  0  0  0
   12.1911   14.2636   20.3771 C   0  0  0  0  0  0  0  0  0  0  0  0
   12.0243   14.6821   19.0159 C   0  0  0  0  0  0  0  0  0  0  0  0
   10.7499   15.3760   18.6226 C   0  0  0  0  0  0  0  0  0  0  0  0
   11.0372   13.9977   18.1628 C   0  0  0  0  0  0  0  0  0  0  0  0
   10.6085   14.4602   25.1844 C   0  0  0  0  0  0  0  0  0  0  0  0
   10.2607   15.3458   25.9638 O   0  0  0  0  0  0  0  0  0  0  0  0
    9.8160   13.4798   24.6152 N   0  0  0  0  0  0  0  0  0  0  0  0
    8.5018   13.2249   24.9008 C   0  0  0  0  0  0  0  0  0  0  0  0
    7.9847   11.9045   24.8620 C   0  0  0  0  0  0  0  0  0  0  0  0
    6.8304   11.9926   25.5983 C   0  0  0  0  0  0  0  0  0  0  0  0
    5.9825   11.0190   26.2531 C   0  0  0  0  0  0  0  0  0  0  0  0
    4.7365   11.4924   26.4807 F   0  0  0  0  0  0  0  0  0  0  0  0
    5.8677    9.8843   25.5387 F   0  0  0  0  0  0  0  0  0  0  0  0
    6.4866   10.6707   27.4653 F   0  0  0  0  0  0  0  0  0  0  0  0
    6.5882   13.3136   25.7580 N   0  0  0  0  0  0  0  0  0  0  0  0
    7.6393   14.0804   25.4548 N   0  0  0  0  0  0  0  0  0  0  0  0
  2  1  1  1
  2  3  1  0
  3  4  1  0
  4  5  2  0
  4  6  1  0
  6  7  1  0
  7  8  3  0
  6  9  2  0
  9 10  1  0
 10 11  1  0
 11 12  1  0
  2 13  1  0
 13 14  2  0
 13 15  1  0
 15 16  1  0
 16 17  1  0
 17 18  2  0
 18 19  1  0
 19 20  1  0
 19 21  1  0
 19 22  1  0
 18 23  1  0
 23 24  1  0
 12 10  1  0
 24 16  2  0
M  END
$$$$

     RDKit          3D

 24 25  0  0  0  0  0  0  0  0999 V2000
   12.5215   15.3020   22.6420 C   0  0  0  0  0  0  0  0  0  0  0  0
   12.5589   13.8726   23.1218 C   0  0  1  0  0  0  0  0  0  0  0  0
   13.7599   13.6431   23.9729 N   0  0  0  0  0  0  0  0  0  0  0  0
   13.9917   12.3391   24.3218 C   0  0  0  0  0  0  0  0  0  0  0  0
   12.9979   11.6415   24.2144 O   0  0  0  0  0  0  0  0  0  0  0  0
   15.4210   11.7289   24.6011 C   0  0  0  0  0  0  0  0  0  0  0  0
   15.7925   11.6684   25.9384 C   0  0  0  0  0  0  0  0  0  0  0  0
   16.1152   11.5910   27.0452 N   0  0  0  0  0  0  0  0  0  0  0  0
   16.3426   11.2143   23.7106 C   0  0  0  0  0  0  0  0  0  0  0  0
   16.2774   11.1246   22.1847 C   0  0  0  0  0  0  0  0  0  0  0  0
   16.9806   10.4577   21.0535 C   0  0  0  0  0  0  0  0  0  0  0  0
   17.0607   11.8513   21.0847 C   0  0  0  0  0  0  0  0  0  0  0  0
   11.2371   13.5893   23.8447 C   0  0  0  0  0  0  0  0  0  0  0  0
   10.9177   14.1835   24.8802 O   0  0  0  0  0  0  0  0  0  0  0  0
   10.5131   12.5302   23.2899 N   0  0  0  0  0  0  0  0  0  0  0  0
    9.2280   12.3017   23.7632 C   0  0  0  0  0  0  0  0  0  0  0  0
    8.7379   11.1124   24.3749 C   0  0  0  0  0  0  0  0  0  0  0  0
    7.5540   11.5096   24.9744 C   0  0  0  0  0  0  0  0  0  0  0  0
    6.5397   10.8856   25.8158 C   0  0  0  0  0  0  0  0  0  0  0  0
    6.1080    9.7513   25.2445 F   0  0  0  0  0  0  0  0  0  0  0  0
    5.4584   11.6812   26.0167 F   0  0  0  0  0  0  0  0  0  0  0  0
    6.9788   10.5487   27.0479 F   0  0  0  0  0  0  0  0  0  0  0  0
    7.3400   12.7812   24.5689 N   0  0  0  0  0  0  0  0  0  0  0  0
    8.2992   13.2641   23.7894 N   0  0  0  0  0  0  0  0  0  0  0  0
  2  1  1  1
  2  3  1  0
  3  4  1  0
  4  5  2  0
  4  6  1  0
  6  7  1  0
  7  8  3  0
  6  9  2  0
  9 10  1  0
 10 11  1  0
 11 12  1  0
  2 13  1  0
 13 14  2  0
 13 15  1  0
 15 16  1  0
 16 17  1  0
 17 18  2  0
 18 19  1  0
 19 20  1  0
 19 21  1  0
 19 22  1  0
 18 23  1  0
 23 24  1  0
 12 10  1  0
 24 16  2  0
M  END
$$$$

     RDKit          3D

 24 25  0  0  0  0  0  0  0  0999 V2000
   13.0073   14.9618   25.6799 C   0  0  0  0  0  0  0  0  0  0  0  0
   12.0605   14.2189   24.7930 C   0  0  2  0  0  0  0  0  0  0  0  0
   12.2288   14.5123   23.4070 N   0  0  0  0  0  0  0  0  0  0  0  0
   11.7817   13.5178   22.5662 C   0  0  0  0  0  0  0  0  0  0  0  0
   11.5538   12.3775   22.9608 O   0  0  0  0  0  0  0  0  0  0  0  0
   11.2770   14.0589   21.3191 C   0  0  0  0  0  0  0  0  0  0  0  0
    9.8778   14.2083   21.1822 C   0  0  0  0  0  0  0  0  0  0  0  0
    8.7190   14.3084   21.1468 N   0  0  0  0  0  0  0  0  0  0  0  0
   12.1911   14.2636   20.3771 C   0  0  0  0  0  0  0  0  0  0  0  0
   12.0243   14.6821   19.0159 C   0  0  0  0  0  0  0  0  0  0  0  0
   10.7499   15.3760   18.6226 C   0  0  0  0  0  0  0  0  0  0  0  0
   11.0372   13.9977   18.1628 C   0  0  0  0  0  0  0  0  0  0  0  0
   10.6085   14.4602   25.1844 C   0  0  0  0  0  0  0  0  0  0  0  0
   10.2607   15.3458   25.9638 O   0  0  0  0  0  0  0  0  0  0  0  0
    9.8160   13.4798   24.6152 N   0  0  0  0  0  0  0  0  0  0  0  0
    8.5018   13.2249   24.9008 C   0  0  0  0  0  0  0  0  0  0  0  0
    7.9847   11.9045   24.8620 C   0  0  0  0  0  0  0  0  0  0  0  0
    6.8304   11.9926   25.5983 C   0  0  0  0  0  0  0  0  0  0  0  0
    5.9825   11.0190   26.2531 C   0  0  0  0  0  0  0  0  0  0  0  0
    4.7365   11.4924   26.4807 F   0  0  0  0  0  0  0  0  0  0  0  0
    5.8677    9.8843   25.5387 F   0  0  0  0  0  0  0  0  0  0  0  0
    6.4866   10.6707   27.4653 F   0  0  0  0  0  0  0  0  0  0  0  0
    6.5882   13.3136   25.7580 N   0  0  0  0  0  0  0  0  0  0  0  0
    7.6393   14.0804   25.4548 N   0  0  0  0  0  0  0  0  0  0  0  0
  2  1  1  1
  2  3  1  0
  3  4  1  0
  4  5  2  0
  4  6  1  0
  6  7  1  0
  7  8  3  0
  6  9  2  0
  9 10  1  0
 10 11  1  0
 11 12  1  0
  2 13  1  0
 13 14  2  0
 13 15  1  0
 15 16  1  0
 16 17  1  0
 17 18  2  0
 18 19  1  0
 19 20  1  0
 19 21  1  0
 19 22  1  0
 18 23  1  0
 23 24  1  0
 12 10  1  0
 24 16  2  0
M  END
$$$$

     RDKit          3D

 24 25  0  0  0  0  0  0  0  0999 V2000
   12.5215   15.3020   22.6420 C   0  0  0  0  0  0  0  0  0  0  0  0
   12.5589   13.8726   23.1218 C   0  0  1  0  0  0  0  0  0  0  0  0
   13.7599   13.6431   23.9729 N   0  0  0  0  0  0  0  0  0  0  0  0
   13.9917   12.3391   24.3218 C   0  0  0  0  0  0  0  0  0  0  0  0
   12.9979   11.6415   24.2144 O   0  0  0  0  0  0  0  0  0  0  0  0
   15.4210   11.7289   24.6011 C   0  0  0  0  0  0  0  0  0  0  0  0
   15.7925   11.6684   25.9384 C   0  0  0  0  0  0  0  0  0  0  0  0
   16.1152   11.5910   27.0452 N   0  0  0  0  0  0  0  0  0  0  0  0
   16.3426   11.2143   23.7106 C   0  0  0  0  0  0  0  0  0  0  0  0
   16.2774   11.1246   22.1847 C   0  0  0  0  0  0  0  0  0  0  0  0
   16.9806   10.4577   21.0535 C   0  0  0  0  0  0  0  0  0  0  0  0
   17.0607   11.8513   21.0847 C   0  0  0  0  0  0  0  0  0  0  0  0
   11.2371   13.5893   23.8447 C   0  0  0  0  0  0  0  0  0  0  0  0
   10.9177   14.1835   24.8802 O   0  0  0  0  0  0  0  0  0  0  0  0
   10.5131   12.5302   23.2899 N   0  0  0  0  0  0  0  0  0  0  0  0
    9.2280   12.3017   23.7632 C   0  0  0  0  0  0  0  0  0  0  0  0
    8.7379   11.1124   24.3749 C   0  0  0  0  0  0  0  0  0  0  0  0
    7.5540   11.5096   24.9744 C   0  0  0  0  0  0  0  0  0  0  0  0
    6.5397   10.8856   25.8158 C   0  0  0  0  0  0  0  0  0  0  0  0
    6.1080    9.7513   25.2445 F   0  0  0  0  0  0  0  0  0  0  0  0
    5.4584   11.6812   26.0167 F   0  0  0  0  0  0  0  0  0  0  0  0
    6.9788   10.5487   27.0479 F   0  0  0  0  0  0  0  0  0  0  0  0
    7.3400   12.7812   24.5689 N   0  0  0  0  0  0  0  0  0  0  0  0
    8.2992   13.2641   23.7894 N   0  0  0  0  0  0  0  0  0  0  0  0
  2  1  1  1
  2  3  1  0
  3  4  1  0
  4  5  2  0
  4  6  1  0
  6  7  1  0
  7  8  3  0
  6  9  2  0
  9 10  1  0
 10 11  1  0
 11 12  1  0
  2 13  1  0
 13 14  2  0
 13 15  1  0
 15 16  1  0
 16 17  1  0
 17 18  2  0
 18 19  1  0
 19 20  1  0
 19 21  1  0
 19 22  1  0
 18 23  1  0
 23 24  1  0
 12 10  1  0
 24 16  2  0
M  END
$$$$

     RDKit          3D

 24 25  0  0  0  0  0  0  0  0999 V2000
   13.0073   14.9618   25.6799 C   0  0  0  0  0  0  0  0  0  0  0  0
   12.0605   14.2189   24.7930 C   0  0  2  0  0  0  0  0  0  0  0  0
   12.2288   14.5123   23.4070 N   0  0  0  0  0  0  0  0  0  0  0  0
   11.7817   13.5178   22.5662 C   0  0  0  0  0  0  0  0  0  0  0  0
   11.5538   12.3775   22.9608 O   0  0  0  0  0  0  0  0  0  0  0  0
   11.2770   14.0589   21.3191 C   0  0  0  0  0  0  0  0  0  0  0  0
    9.8778   14.2083   21.1822 C   0  0  0  0  0  0  0  0  0  0  0  0
    8.7190   14.3084   21.1468 N   0  0  0  0  0  0  0  0  0  0  0  0
   12.1911   14.2636   20.3771 C   0  0  0  0  0  0  0  0  0  0  0  0
   12.0243   14.6821   19.0159 C   0  0  0  0  0  0  0  0  0  0  0  0
   10.7499   15.3760   18.6226 C   0  0  0  0  0  0  0  0  0  0  0  0
   11.0372   13.9977   18.1628 C   0  0  0  0  0  0  0  0  0  0  0  0
   10.6085   14.4602   25.1844 C   0  0  0  0  0  0  0  0  0  0  0  0
   10.2607   15.3458   25.9638 O   0  0  0  0  0  0  0  0  0  0  0  0
    9.8160   13.4798   24.6152 N   0  0  0  0  0  0  0  0  0  0  0  0
    8.5018   13.2249   24.9008 C   0  0  0  0  0  0  0  0  0  0  0  0
    7.9847   11.9045   24.8620 C   0  0  0  0  0  0  0  0  0  0  0  0
    6.8304   11.9926   25.5983 C   0  0  0  0  0  0  0  0  0  0  0  0
    5.9825   11.0190   26.2531 C   0  0  0  0  0  0  0  0  0  0  0  0
    4.7365   11.4924   26.4807 F   0  0  0  0  0  0  0  0  0  0  0  0
    5.8677    9.8843   25.5387 F   0  0  0  0  0  0  0  0  0  0  0  0
    6.4866   10.6707   27.4653 F   0  0  0  0  0  0  0  0  0  0  0  0
    6.5882   13.3136   25.7580 N   0  0  0  0  0  0  0  0  0  0  0  0
    7.6393   14.0804   25.4548 N   0  0  0  0  0  0  0  0  0  0  0  0
  2  1  1  1
  2  3  1  0
  3  4  1  0
  4  5  2  0
  4  6  1  0
  6  7  1  0
  7  8  3  0
  6  9  2  0
  9 10  1  0
 10 11  1  0
 11 12  1  0
  2 13  1  0
 13 14  2  0
 13 15  1  0
 15 16  1  0
 16 17  1  0
 17 18  2  0
 18 19  1  0
 19 20  1  0
 19 21  1  0
 19 22  1  0
 18 23  1  0
 23 24  1  0
 12 10  1  0
 24 16  2  0
M  END
$$$$

     RDKit          3D

 24 25  0  0  0  0  0  0  0  0999 V2000
   12.5215   15.3020   22.6420 C   0  0  0  0  0  0  0  0  0  0  0  0
   12.5589   13.8726   23.1218 C   0  0  1  0  0  0  0  0  0  0  0  0
   13.7599   13.6431   23.9729 N   0  0  0  0  0  0  0  0  0  0  0  0
   13.9917   12.3391   24.3218 C   0  0  0  0  0  0  0  0  0  0  0  0
   12.9979   11.6415   24.2144 O   0  0  0  0  0  0  0  0  0  0  0  0
   15.4210   11.7289   24.6011 C   0  0  0  0  0  0  0  0  0  0  0  0
   15.7925   11.6684   25.9384 C   0  0  0  0  0  0  0  0  0  0  0  0
   16.1152   11.5910   27.0452 N   0  0  0  0  0  0  0  0  0  0  0  0
   16.3426   11.2143   23.7106 C   0  0  0  0  0  0  0  0  0  0  0  0
   16.2774   11.1246   22.1847 C   0  0  0  0  0  0  0  0  0  0  0  0
   16.9806   10.4577   21.0535 C   0  0  0  0  0  0  0  0  0  0  0  0
   17.0607   11.8513   21.0847 C   0  0  0  0  0  0  0  0  0  0  0  0
   11.2371   13.5893   23.8447 C   0  0  0  0  0  0  0  0  0  0  0  0
   10.9177   14.1835   24.8802 O   0  0  0  0  0  0  0  0  0  0  0  0
   10.5131   12.5302   23.2899 N   0  0  0  0  0  0  0  0  0  0  0  0
    9.2280   12.3017   23.7632 C   0  0  0  0  0  0  0  0  0  0  0  0
    8.7379   11.1124   24.3749 C   0  0  0  0  0  0  0  0  0  0  0  0
    7.5540   11.5096   24.9744 C   0  0  0  0  0  0  0  0  0  0  0  0
    6.5397   10.8856   25.8158 C   0  0  0  0  0  0  0  0  0  0  0  0
    6.1080    9.7513   25.2445 F   0  0  0  0  0  0  0  0  0  0  0  0
    5.4584   11.6812   26.0167 F   0  0  0  0  0  0  0  0  0  0  0  0
    6.9788   10.5487   27.0479 F   0  0  0  0  0  0  0  0  0  0  0  0
    7.3400   12.7812   24.5689 N   0  0  0  0  0  0  0  0  0  0  0  0
    8.2992   13.2641   23.7894 N   0  0  0  0  0  0  0  0  0  0  0  0
  2  1  1  1
  2  3  1  0
  3  4  1  0
  4  5  2  0
  4  6  1  0
  6  7  1  0
  7  8  3  0
  6  9  2  0
  9 10  1  0
 10 11  1  0
 11 12  1  0
  2 13  1  0
 13 14  2  0
 13 15  1  0
 15 16  1  0
 16 17  1  0
 17 18  2  0
 18 19  1  0
 19 20  1  0
 19 21  1  0
 19 22  1  0
 18 23  1  0
 23 24  1  0
 12 10  1  0
 24 16  2  0
M  END
$$$$

     RDKit          3D

 24 25  0  0  0  0  0  0  0  0999 V2000
   13.0073   14.9618   25.6799 C   0  0  0  0  0  0  0  0  0  0  0  0
   12.0605   14.2189   24.7930 C   0  0  2  0  0  0  0  0  0  0  0  0
   12.2288   14.5123   23.4070 N   0  0  0  0  0  0  0  0  0  0  0  0
   11.7817   13.5178   22.5662 C   0  0  0  0  0  0  0  0  0  0  0  0
   11.5538   12.3775   22.9608 O   0  0  0  0  0  0  0  0  0  0  0  0
   11.2770   14.0589   21.3191 C   0  0  0  0  0  0  0  0  0  0  0  0
    9.8778   14.2083   21.1822 C   0  0  0  0  0  0  0  0  0  0  0  0
    8.7190   14.3084   21.1468 N   0  0  0  0  0  0  0  0  0  0  0  0
   12.1911   14.2636   20.3771 C   0  0  0  0  0  0  0  0  0  0  0  0
   12.0243   14.6821   19.0159 C   0  0  0  0  0  0  0  0  0  0  0  0
   10.7499   15.3760   18.6226 C   0  0  0  0  0  0  0  0  0  0  0  0
   11.0372   13.9977   18.1628 C   0  0  0  0  0  0  0  0  0  0  0  0
   10.6085   14.4602   25.1844 C   0  0  0  0  0  0  0  0  0  0  0  0
   10.2607   15.3458   25.9638 O   0  0  0  0  0  0  0  0  0  0  0  0
    9.8160   13.4798   24.6152 N   0  0  0  0  0  0  0  0  0  0  0  0
    8.5018   13.2249   24.9008 C   0  0  0  0  0  0  0  0  0  0  0  0
    7.9847   11.9045   24.8620 C   0  0  0  0  0  0  0  0  0  0  0  0
    6.8304   11.9926   25.5983 C   0  0  0  0  0  0  0  0  0  0  0  0
    5.9825   11.0190   26.2531 C   0  0  0  0  0  0  0  0  0  0  0  0
    4.7365   11.4924   26.4807 F   0  0  0  0  0  0  0  0  0  0  0  0
    5.8677    9.8843   25.5387 F   0  0  0  0  0  0  0  0  0  0  0  0
    6.4866   10.6707   27.4653 F   0  0  0  0  0  0  0  0  0  0  0  0
    6.5882   13.3136   25.7580 N   0  0  0  0  0  0  0  0  0  0  0  0
    7.6393   14.0804   25.4548 N   0  0  0  0  0  0  0  0  0  0  0  0
  2  1  1  1
  2  3  1  0
  3  4  1  0
  4  5  2  0
  4  6  1  0
  6  7  1  0
  7  8  3  0
  6  9  2  0
  9 10  1  0
 10 11  1  0
 11 12  1  0
  2 13  1  0
 13 14  2  0
 13 15  1  0
 15 16  1  0
 16 17  1  0
 17 18  2  0
 18 19  1  0
 19 20  1  0
 19 21  1  0
 19 22  1  0
 18 23  1  0
 23 24  1  0
 12 10  1  0
 24 16  2  0
M  END
$$$$

     RDKit          3D

 24 24  0  0  0  0  0  0  0  0999 V2000
   10.0416    9.2242   23.0368 C   0  0  0  0  0  0  0  0  0  0  0  0
    9.1504   10.1713   23.7452 C   0  0  0  0  0  0  0  0  0  0  0  0
    8.1576    9.6937   24.5038 N   0  0  0  0  0  0  0  0  0  0  0  0
    7.6158   10.7787   25.0642 N   0  0  0  0  0  0  0  0  0  0  0  0
    6.4884   10.5767   25.9483 C   0  0  0  0  0  0  0  0  0  0  0  0
    8.0989   11.9628   24.5715 C   0  0  0  0  0  0  0  0  0  0  0  0
    7.5552   13.2201   24.8514 N   0  0  0  0  0  0  0  0  0  0  0  0
    7.4743   14.2373   23.8145 C   0  0  0  0  0  0  0  0  0  0  0  0
    6.2059   14.1111   23.0044 C   0  0  2  0  0  0  0  0  0  0  0  0
    6.5174   13.4569   21.7872 O   0  0  0  0  0  0  0  0  0  0  0  0
    5.6296   15.4592   22.6802 C   0  0  0  0  0  0  0  0  0  0  0  0
    5.3267   16.1138   23.8969 O   0  0  0  0  0  0  0  0  0  0  0  0
    7.4279   13.6025   26.1913 C   0  0  0  0  0  0  0  0  0  0  0  0
    7.5565   12.8365   27.1440 O   0  0  0  0  0  0  0  0  0  0  0  0
    7.0487   15.0453   26.3731 C   0  0  1  0  0  0  0  0  0  0  0  0
    5.7011   15.1762   26.5308 F   0  0  0  0  0  0  0  0  0  0  0  0
    7.7989   15.6378   27.5349 C   0  0  0  0  0  0  0  0  0  0  0  0
    7.4737   15.0875   28.7218 F   0  0  0  0  0  0  0  0  0  0  0  0
    7.5374   16.9676   27.6243 F   0  0  0  0  0  0  0  0  0  0  0  0
    9.1357   15.5305   27.3611 F   0  0  0  0  0  0  0  0  0  0  0  0
    9.1765   11.5880   23.7807 C   0  0  0  0  0  0  0  0  0  0  0  0
   10.1708   12.4586   23.2368 N   0  0  0  0  0  4  0  0  0  0  0  0
   10.0652   13.6703   23.4640 O   0  0  0  0  0  0  0  0  0  0  0  0
   11.0950   11.9269   22.6485 O   0  0  0  0  0  1  0  0  0  0  0  0
  1  2  1  0
  2  3  2  0
  3  4  1  0
  4  5  1  0
  4  6  1  0
  6  7  1  0
  7  8  1  0
  8  9  1  0
  9 10  1  6
  9 11  1  0
 11 12  1  0
  7 13  1  0
 13 14  2  0
 13 15  1  0
 15 16  1  1
 15 17  1  0
 17 18  1  0
 17 19  1  0
 17 20  1  0
  6 21  2  0
 21 22  1  0
 22 23  2  0
 22 24  1  0
 21  2  1  0
M  CHG  2  22   1  24  -1
M  END
$$$$

     RDKit          3D

 24 24  0  0  0  0  0  0  0  0999 V2000
   10.1258    9.0760   22.9950 C   0  0  0  0  0  0  0  0  0  0  0  0
    9.2162    9.9663   23.7464 C   0  0  0  0  0  0  0  0  0  0  0  0
    8.2336    9.4379   24.4916 N   0  0  0  0  0  0  0  0  0  0  0  0
    7.6541   10.4896   25.0710 N   0  0  0  0  0  0  0  0  0  0  0  0
    6.4992   10.2638   25.9103 C   0  0  0  0  0  0  0  0  0  0  0  0
    8.1217   11.6843   24.6248 C   0  0  0  0  0  0  0  0  0  0  0  0
    7.5129   12.9008   24.8713 N   0  0  0  0  0  0  0  0  0  0  0  0
    7.0830   13.3137   26.1929 C   0  0  0  0  0  0  0  0  0  0  0  0
    8.1460   14.0768   26.9618 C   0  0  1  0  0  0  0  0  0  0  0  0
    8.3595   15.3605   26.3984 O   0  0  0  0  0  0  0  0  0  0  0  0
    7.6665   14.2205   28.3852 C   0  0  0  0  0  0  0  0  0  0  0  0
    8.7632   14.4177   29.2568 O   0  0  0  0  0  0  0  0  0  0  0  0
    7.1763   13.6330   23.7223 C   0  0  0  0  0  0  0  0  0  0  0  0
    7.3345   13.2114   22.5745 O   0  0  0  0  0  0  0  0  0  0  0  0
    6.6043   14.9638   24.0243 C   0  0  2  0  0  0  0  0  0  0  0  0
    5.6323   14.9545   24.9885 F   0  0  0  0  0  0  0  0  0  0  0  0
    6.1213   15.6393   22.7943 C   0  0  0  0  0  0  0  0  0  0  0  0
    5.8759   16.8938   23.1964 F   0  0  0  0  0  0  0  0  0  0  0  0
    7.0180   15.6663   21.7918 F   0  0  0  0  0  0  0  0  0  0  0  0
    4.9709   15.1339   22.3173 F   0  0  0  0  0  0  0  0  0  0  0  0
    9.2194   11.3749   23.8438 C   0  0  0  0  0  0  0  0  0  0  0  0
   10.1650   12.3189   23.3400 N   0  0  0  0  0  4  0  0  0  0  0  0
   10.1398   13.4638   23.8151 O   0  0  0  0  0  0  0  0  0  0  0  0
   10.9868   11.8953   22.5485 O   0  0  0  0  0  1  0  0  0  0  0  0
  1  2  1  0
  2  3  2  0
  3  4  1  0
  4  5  1  0
  4  6  1  0
  6  7  1  0
  7  8  1  0
  8  9  1  0
  9 10  1  6
  9 11  1  0
 11 12  1  0
  7 13  1  0
 13 14  2  0
 13 15  1  0
 15 16  1  1
 15 17  1  0
 17 18  1  0
 17 19  1  0
 17 20  1  0
  6 21  2  0
 21 22  1  0
 22 23  2  0
 22 24  1  0
 21  2  1  0
M  CHG  2  22   1  24  -1
M  END
$$$$

     RDKit          3D

 18 19  0  0  0  0  0  0  0  0999 V2000
   10.0755    9.0192   23.0290 C   0  0  0  0  0  0  0  0  0  0  0  0
    9.2219    9.9970   23.6743 N   0  0  0  0  0  0  0  0  0  0  0  0
    8.1907    9.5687   24.4479 N   0  0  0  0  0  0  0  0  0  0  0  0
    7.6879   10.7030   24.8999 C   0  0  0  0  0  0  0  0  0  0  0  0
    8.3232   11.8317   24.4150 C   0  0  0  0  0  0  0  0  0  0  0  0
    9.3623   11.3715   23.6521 C   0  0  0  0  0  0  0  0  0  0  0  0
   10.4147   11.9818   23.0116 N   0  0  0  0  0  0  0  0  0  0  0  0
   10.7783   13.2988   23.2601 C   0  0  0  0  0  0  0  0  0  0  0  0
   10.1815   14.0684   24.0104 O   0  0  0  0  0  0  0  0  0  0  0  0
   12.0583   13.6276   22.5368 C   0  0  2  0  0  0  0  0  0  0  0  0
   13.0559   12.8148   23.0159 F   0  0  0  0  0  0  0  0  0  0  0  0
   12.4549   15.0404   22.8559 C   0  0  0  0  0  0  0  0  0  0  0  0
   11.5026   15.9490   22.5753 F   0  0  0  0  0  0  0  0  0  0  0  0
   12.7530   15.1416   24.1692 F   0  0  0  0  0  0  0  0  0  0  0  0
   13.5389   15.4214   22.1553 F   0  0  0  0  0  0  0  0  0  0  0  0
    7.7090   13.0688   24.9130 C   0  0  0  0  0  0  0  0  0  0  0  0
    6.5507   12.5409   25.8180 C   0  0  0  0  0  0  0  0  0  0  0  0
    6.5633   10.9813   25.7991 C   0  0  0  0  0  0  0  0  0  0  0  0
  1  2  1  0
  2  3  1  0
  3  4  2  0
  4  5  1  0
  5  6  2  0
  6  7  1  0
  7  8  1  0
  8  9  2  0
  8 10  1  0
 10 11  1  1
 10 12  1  0
 12 13  1  0
 12 14  1  0
 12 15  1  0
  5 16  1  0
 16 17  1  0
 17 18  1  0
  6  2  1  0
 18  4  1  0
M  END
$$$$

     RDKit          3D

 18 19  0  0  0  0  0  0  0  0999 V2000
   10.0890    9.0217   22.9884 C   0  0  0  0  0  0  0  0  0  0  0  0
    9.2547   10.0067   23.6464 N   0  0  0  0  0  0  0  0  0  0  0  0
    8.2280    9.5851   24.4310 N   0  0  0  0  0  0  0  0  0  0  0  0
    7.7377   10.7229   24.8883 C   0  0  0  0  0  0  0  0  0  0  0  0
    8.3773   11.8465   24.3970 C   0  0  0  0  0  0  0  0  0  0  0  0
    9.3985   11.3802   23.6134 C   0  0  0  0  0  0  0  0  0  0  0  0
   10.4048   12.0028   22.9095 N   0  0  0  0  0  0  0  0  0  0  0  0
   10.7976   13.3049   23.1883 C   0  0  0  0  0  0  0  0  0  0  0  0
   10.4533   13.9424   24.1836 O   0  0  0  0  0  0  0  0  0  0  0  0
   11.6523   13.8553   22.0762 C   0  0  1  0  0  0  0  0  0  0  0  0
   10.8639   14.3230   21.0601 F   0  0  0  0  0  0  0  0  0  0  0  0
   12.5021   14.9698   22.6338 C   0  0  0  0  0  0  0  0  0  0  0  0
   11.7794   16.0058   23.1170 F   0  0  0  0  0  0  0  0  0  0  0  0
   13.2860   14.5065   23.6380 F   0  0  0  0  0  0  0  0  0  0  0  0
   13.3105   15.4925   21.6898 F   0  0  0  0  0  0  0  0  0  0  0  0
    7.7679   13.0900   24.8843 C   0  0  0  0  0  0  0  0  0  0  0  0
    6.6024   12.5716   25.7870 C   0  0  0  0  0  0  0  0  0  0  0  0
    6.6128   11.0113   25.7840 C   0  0  0  0  0  0  0  0  0  0  0  0
  1  2  1  0
  2  3  1  0
  3  4  2  0
  4  5  1  0
  5  6  2  0
  6  7  1  0
  7  8  1  0
  8  9  2  0
  8 10  1  0
 10 11  1  6
 10 12  1  0
 12 13  1  0
 12 14  1  0
 12 15  1  0
  5 16  1  0
 16 17  1  0
 17 18  1  0
  6  2  1  0
 18  4  1  0
M  END
$$$$

     RDKit          3D

 24 26  0  0  0  0  0  0  0  0999 V2000
   12.1240   15.5560   22.7930 N   0  0  0  0  0  0  0  0  0  0  0  0
   11.6888   14.4845   22.8942 C   0  0  0  0  0  0  0  0  0  0  0  0
   11.0699   13.2295   23.1492 C   0  0  0  0  0  0  0  0  0  0  0  0
   11.1312   12.2334   22.2699 C   0  0  0  0  0  0  0  0  0  0  0  0
   10.5128   10.9217   22.2731 C   0  0  0  0  0  0  0  0  0  0  0  0
   10.9466    9.6983   21.7958 C   0  0  0  0  0  0  0  0  0  0  0  0
   10.2014    8.6301   22.1974 C   0  0  0  0  0  0  0  0  0  0  0  0
    9.1183    9.2538   22.6905 C   0  0  0  0  0  0  0  0  0  0  0  0
    9.2273   10.6066   22.5867 O   0  0  0  0  0  0  0  0  0  0  0  0
   10.2827   13.0829   24.3861 C   0  0  0  0  0  0  0  0  0  0  0  0
   10.1222   14.0205   25.1610 O   0  0  0  0  0  0  0  0  0  0  0  0
    9.7557   11.8243   24.5119 N   0  0  0  0  0  0  0  0  0  0  0  0
    8.6706   11.3454   25.1810 C   0  0  0  0  0  0  0  0  0  0  0  0
    7.8132   10.2616   24.9206 C   0  0  0  0  0  0  0  0  0  0  0  0
    6.5994   10.4473   25.4726 N   0  0  0  0  0  0  0  0  0  0  0  0
    6.7570   11.6089   26.1207 N   0  0  0  0  0  0  0  0  0  0  0  0
    5.8679   12.7393   26.0164 C   0  0  1  0  0  0  0  0  0  0  0  0
    6.6389   14.0404   26.2254 C   0  0  0  0  0  0  0  0  0  0  0  0
    7.4864   14.3531   24.9816 C   0  0  0  0  0  0  0  0  0  0  0  0
    6.6630   13.6594   23.6093 S   0  0  0  0  0  0  0  0  0  0  0  0
    6.0738   14.7033   22.8126 O   0  0  0  0  0  0  0  0  0  0  0  0
    7.5290   12.6842   22.9910 O   0  0  0  0  0  0  0  0  0  0  0  0
    5.4016   12.9655   24.6320 C   0  0  0  0  0  0  0  0  0  0  0  0
    8.0519   11.9439   26.2151 C   0  0  0  0  0  0  0  0  0  0  0  0
  1  2  3  0
  2  3  1  0
  3  4  2  0
  4  5  1  0
  5  6  2  0
  6  7  1  0
  7  8  2  0
  8  9  1  0
  3 10  1  0
 10 11  2  0
 10 12  1  0
 12 13  1  0
 13 14  1  0
 14 15  2  0
 15 16  1  0
 17 16  1  6
 17 18  1  0
 18 19  1  0
 19 20  1  0
 20 21  2  0
 20 22  2  0
 20 23  1  0
 16 24  1  0
  9  5  1  0
 24 13  2  0
 23 17  1  0
M  END
$$$$

     RDKit          3D

 24 26  0  0  0  0  0  0  0  0999 V2000
   12.1240   15.5560   22.7930 N   0  0  0  0  0  0  0  0  0  0  0  0
   11.6888   14.4845   22.8942 C   0  0  0  0  0  0  0  0  0  0  0  0
   11.0699   13.2295   23.1492 C   0  0  0  0  0  0  0  0  0  0  0  0
   11.1312   12.2334   22.2699 C   0  0  0  0  0  0  0  0  0  0  0  0
   10.5128   10.9217   22.2731 C   0  0  0  0  0  0  0  0  0  0  0  0
   10.9466    9.6983   21.7958 C   0  0  0  0  0  0  0  0  0  0  0  0
   10.2014    8.6301   22.1974 C   0  0  0  0  0  0  0  0  0  0  0  0
    9.1183    9.2538   22.6905 C   0  0  0  0  0  0  0  0  0  0  0  0
    9.2273   10.6066   22.5867 O   0  0  0  0  0  0  0  0  0  0  0  0
   10.2827   13.0829   24.3861 C   0  0  0  0  0  0  0  0  0  0  0  0
   10.1222   14.0205   25.1610 O   0  0  0  0  0  0  0  0  0  0  0  0
    9.7557   11.8243   24.5119 N   0  0  0  0  0  0  0  0  0  0  0  0
    8.6706   11.3454   25.1810 C   0  0  0  0  0  0  0  0  0  0  0  0
    7.8132   10.2616   24.9206 C   0  0  0  0  0  0  0  0  0  0  0  0
    6.5994   10.4473   25.4726 N   0  0  0  0  0  0  0  0  0  0  0  0
    6.7570   11.6089   26.1207 N   0  0  0  0  0  0  0  0  0  0  0  0
    5.8679   12.7393   26.0164 C   0  0  1  0  0  0  0  0  0  0  0  0
    6.6389   14.0404   26.2254 C   0  0  0  0  0  0  0  0  0  0  0  0
    7.4864   14.3531   24.9816 C   0  0  0  0  0  0  0  0  0  0  0  0
    6.6630   13.6594   23.6093 S   0  0  0  0  0  0  0  0  0  0  0  0
    6.0738   14.7033   22.8126 O   0  0  0  0  0  0  0  0  0  0  0  0
    7.5290   12.6842   22.9910 O   0  0  0  0  0  0  0  0  0  0  0  0
    5.4016   12.9655   24.6320 C   0  0  0  0  0  0  0  0  0  0  0  0
    8.0519   11.9439   26.2151 C   0  0  0  0  0  0  0  0  0  0  0  0
  1  2  3  0
  2  3  1  0
  3  4  2  0
  4  5  1  0
  5  6  2  0
  6  7  1  0
  7  8  2  0
  8  9  1  0
  3 10  1  0
 10 11  2  0
 10 12  1  0
 12 13  1  0
 13 14  1  0
 14 15  2  0
 15 16  1  0
 17 16  1  6
 17 18  1  0
 18 19  1  0
 19 20  1  0
 20 21  2  0
 20 22  2  0
 20 23  1  0
 16 24  1  0
  9  5  1  0
 24 13  2  0
 23 17  1  0
M  END
$$$$

     RDKit          3D

 21 22  0  0  0  0  0  0  0  0999 V2000
   11.2732    8.7151   23.5358 C   0  0  0  0  0  0  0  0  0  0  0  0
    9.8665    8.9028   23.0846 C   0  0  0  0  0  0  0  0  0  0  0  0
    9.9143    9.0046   21.6060 C   0  0  0  0  0  0  0  0  0  0  0  0
    9.1710    9.9889   23.7225 N   0  0  0  0  0  0  0  0  0  0  0  0
    8.1510    9.6472   24.5615 N   0  0  0  0  0  0  0  0  0  0  0  0
    7.6856   10.8182   24.9454 C   0  0  0  0  0  0  0  0  0  0  0  0
    8.3625   11.8945   24.4068 C   0  0  0  0  0  0  0  0  0  0  0  0
    9.3687   11.3622   23.6447 C   0  0  0  0  0  0  0  0  0  0  0  0
   10.3835   11.9459   22.9171 N   0  0  0  0  0  0  0  0  0  0  0  0
   10.8518   13.2261   23.1938 C   0  0  0  0  0  0  0  0  0  0  0  0
   10.6081   13.8571   24.2241 O   0  0  0  0  0  0  0  0  0  0  0  0
   11.7524   13.7363   22.1091 C   0  0  2  0  0  0  0  0  0  0  0  0
   12.7543   14.7492   22.5930 C   0  0  0  0  0  0  0  0  0  0  0  0
   12.1582   15.9572   23.0304 O   0  0  0  0  0  0  0  0  0  0  0  0
   10.9727   14.2705   20.9540 C   0  0  0  0  0  0  0  0  0  0  0  0
   11.7366   14.3785   19.8534 F   0  0  0  0  0  0  0  0  0  0  0  0
   10.4650   15.4897   21.2047 F   0  0  0  0  0  0  0  0  0  0  0  0
    9.8937   13.5250   20.6599 F   0  0  0  0  0  0  0  0  0  0  0  0
    7.7845   13.1767   24.8263 C   0  0  0  0  0  0  0  0  0  0  0  0
    6.5932   12.7348   25.7379 C   0  0  0  0  0  0  0  0  0  0  0  0
    6.5591   11.1774   25.8107 C   0  0  0  0  0  0  0  0  0  0  0  0
  1  2  1  0
  2  3  1  0
  2  4  1  0
  4  5  1  0
  5  6  2  0
  6  7  1  0
  7  8  2  0
  8  9  1  0
  9 10  1  0
 10 11  2  0
 10 12  1  0
 12 13  1  1
 13 14  1  0
 12 15  1  0
 15 16  1  0
 15 17  1  0
 15 18  1  0
  7 19  1  0
 19 20  1  0
 20 21  1  0
  8  4  1  0
 21  6  1  0
M  END
$$$$

     RDKit          3D

 21 22  0  0  0  0  0  0  0  0999 V2000
    8.9528    8.2852   22.4101 C   0  0  0  0  0  0  0  0  0  0  0  0
    9.8603    9.2182   23.1341 C   0  0  0  0  0  0  0  0  0  0  0  0
   10.5600    9.7879   21.9619 C   0  0  0  0  0  0  0  0  0  0  0  0
    9.0631   10.2197   23.8199 N   0  0  0  0  0  0  0  0  0  0  0  0
    8.0693    9.7716   24.6449 N   0  0  0  0  0  0  0  0  0  0  0  0
    7.5091   10.8868   25.0594 C   0  0  0  0  0  0  0  0  0  0  0  0
    8.1122   12.0277   24.5755 C   0  0  0  0  0  0  0  0  0  0  0  0
    9.1814   11.6056   23.8332 C   0  0  0  0  0  0  0  0  0  0  0  0
   10.1898   12.3192   23.2147 N   0  0  0  0  0  0  0  0  0  0  0  0
   10.5839   13.5461   23.7215 C   0  0  0  0  0  0  0  0  0  0  0  0
   10.2837   13.9851   24.8371 O   0  0  0  0  0  0  0  0  0  0  0  0
   11.3853   14.3867   22.7859 C   0  0  1  0  0  0  0  0  0  0  0  0
   11.8701   15.5887   23.5506 C   0  0  0  0  0  0  0  0  0  0  0  0
   11.9723   16.6934   22.6740 O   0  0  0  0  0  0  0  0  0  0  0  0
   12.6448   13.7152   22.4333 C   0  0  0  0  0  0  0  0  0  0  0  0
   13.2853   13.2521   23.5370 F   0  0  0  0  0  0  0  0  0  0  0  0
   12.4504   12.7039   21.6042 F   0  0  0  0  0  0  0  0  0  0  0  0
   13.4362   14.6176   21.8324 F   0  0  0  0  0  0  0  0  0  0  0  0
    7.4500   13.2476   25.0447 C   0  0  0  0  0  0  0  0  0  0  0  0
    6.2953   12.6877   25.9349 C   0  0  0  0  0  0  0  0  0  0  0  0
    6.3617   11.1294   25.9351 C   0  0  0  0  0  0  0  0  0  0  0  0
  1  2  1  0
  2  3  1  0
  2  4  1  0
  4  5  1  0
  5  6  2  0
  6  7  1  0
  7  8  2  0
  8  9  1  0
  9 10  1  0
 10 11  2  0
 10 12  1  0
 12 13  1  1
 13 14  1  0
 12 15  1  0
 15 16  1  0
 15 17  1  0
 15 18  1  0
  7 19  1  0
 19 20  1  0
 20 21  1  0
  8  4  1  0
 21  6  1  0
M  END
$$$$

     RDKit          3D

 22 23  0  0  0  0  0  0  0  0999 V2000
   10.2725   16.4445   20.2101 C   0  0  0  0  0  0  0  0  0  0  0  0
   11.3217   16.5951   21.3423 C   0  0  0  0  0  0  0  0  0  0  0  0
   11.9066   17.6330   21.6611 O   0  0  0  0  0  0  0  0  0  0  0  0
   11.3595   15.5084   22.1242 N   0  0  0  0  0  0  0  0  0  0  0  0
   12.1452   15.5884   23.3257 C   0  0  0  0  0  0  0  0  0  0  0  0
   13.1219   14.4613   23.4657 C   0  0  0  0  0  0  0  0  0  0  0  0
   12.5318   13.1809   22.9444 C   0  0  0  0  0  0  0  0  0  0  0  0
   11.3068   12.8455   23.7463 C   0  0  0  0  0  0  0  0  0  0  0  0
   11.0169   13.4084   24.8024 O   0  0  0  0  0  0  0  0  0  0  0  0
   10.5804   11.8244   23.1726 N   0  0  0  0  0  0  0  0  0  0  0  0
    9.3651   11.4128   23.7035 C   0  0  0  0  0  0  0  0  0  0  0  0
    8.5147   12.3589   24.2677 C   0  0  0  0  0  0  0  0  0  0  0  0
    7.4530   11.9014   24.9959 C   0  0  0  0  0  0  0  0  0  0  0  0
    6.4204   13.0063   25.7897 Cl  0  0  0  0  0  0  0  0  0  0  0  0
    7.1922   10.5916   25.1873 N   0  0  0  0  0  0  0  0  0  0  0  0
    8.0230    9.7018   24.5793 C   0  0  0  0  0  0  0  0  0  0  0  0
    9.0847   10.0621   23.7866 C   0  0  0  0  0  0  0  0  0  0  0  0
    9.9410    9.0421   23.1957 C   0  0  0  0  0  0  0  0  0  0  0  0
   11.1214    8.9107   23.4205 O   0  0  0  0  0  0  0  0  0  0  0  0
    9.2304    8.3568   22.2989 O   0  0  0  0  0  0  0  0  0  0  0  0
   12.1599   13.4017   21.4983 C   0  0  0  0  0  0  0  0  0  0  0  0
   10.9644   14.2910   21.4960 C   0  0  0  0  0  0  0  0  0  0  0  0
  1  2  1  0
  2  3  2  0
  2  4  1  0
  4  5  1  0
  5  6  1  0
  6  7  1  0
  7  8  1  0
  8  9  2  0
  8 10  1  0
 10 11  1  0
 11 12  2  0
 12 13  1  0
 13 14  1  0
 13 15  2  0
 15 16  1  0
 16 17  2  0
 17 18  1  0
 18 19  2  0
 18 20  1  0
  7 21  1  0
 21 22  1  0
 22  4  1  0
 17 11  1  0
M  END
$$$$

     RDKit          3D

 22 23  0  0  0  0  0  0  0  0999 V2000
   10.2725   16.4445   20.2101 C   0  0  0  0  0  0  0  0  0  0  0  0
   11.3217   16.5951   21.3423 C   0  0  0  0  0  0  0  0  0  0  0  0
   11.9066   17.6330   21.6611 O   0  0  0  0  0  0  0  0  0  0  0  0
   11.3595   15.5084   22.1242 N   0  0  0  0  0  0  0  0  0  0  0  0
   12.1452   15.5884   23.3257 C   0  0  0  0  0  0  0  0  0  0  0  0
   13.1219   14.4613   23.4657 C   0  0  0  0  0  0  0  0  0  0  0  0
   12.5318   13.1809   22.9444 C   0  0  0  0  0  0  0  0  0  0  0  0
   11.3068   12.8455   23.7463 C   0  0  0  0  0  0  0  0  0  0  0  0
   11.0169   13.4084   24.8024 O   0  0  0  0  0  0  0  0  0  0  0  0
   10.5804   11.8244   23.1726 N   0  0  0  0  0  0  0  0  0  0  0  0
    9.3651   11.4128   23.7035 C   0  0  0  0  0  0  0  0  0  0  0  0
    8.5147   12.3589   24.2677 C   0  0  0  0  0  0  0  0  0  0  0  0
    7.4530   11.9014   24.9959 C   0  0  0  0  0  0  0  0  0  0  0  0
    6.4204   13.0063   25.7897 Cl  0  0  0  0  0  0  0  0  0  0  0  0
    7.1922   10.5916   25.1873 N   0  0  0  0  0  0  0  0  0  0  0  0
    8.0230    9.7018   24.5793 C   0  0  0  0  0  0  0  0  0  0  0  0
    9.0847   10.0621   23.7866 C   0  0  0  0  0  0  0  0  0  0  0  0
    9.9410    9.0421   23.1957 C   0  0  0  0  0  0  0  0  0  0  0  0
   11.1214    8.9107   23.4205 O   0  0  0  0  0  0  0  0  0  0  0  0
    9.2304    8.3568   22.2989 O   0  0  0  0  0  0  0  0  0  0  0  0
   12.1599   13.4017   21.4983 C   0  0  0  0  0  0  0  0  0  0  0  0
   10.9644   14.2910   21.4960 C   0  0  0  0  0  0  0  0  0  0  0  0
  1  2  1  0
  2  3  2  0
  2  4  1  0
  4  5  1  0
  5  6  1  0
  6  7  1  0
  7  8  1  0
  8  9  2  0
  8 10  1  0
 10 11  1  0
 11 12  2  0
 12 13  1  0
 13 14  1  0
 13 15  2  0
 15 16  1  0
 16 17  2  0
 17 18  1  0
 18 19  2  0
 18 20  1  0
  7 21  1  0
 21 22  1  0
 22  4  1  0
 17 11  1  0
M  END
$$$$

     RDKit          3D

 24 26  0  0  0  0  0  0  0  0999 V2000
   12.0997   15.7407   22.8559 N   0  0  0  0  0  0  0  0  0  0  0  0
   11.7259   14.6524   23.0090 C   0  0  0  0  0  0  0  0  0  0  0  0
   11.1986   13.3650   23.2945 C   0  0  0  0  0  0  0  0  0  0  0  0
   11.2280   12.4064   22.3740 C   0  0  0  0  0  0  0  0  0  0  0  0
   10.7908   11.0503   22.5526 C   0  0  0  0  0  0  0  0  0  0  0  0
    9.9764   10.2347   21.8299 C   0  0  0  0  0  0  0  0  0  0  0  0
   10.1129    8.8905   22.1460 C   0  0  0  0  0  0  0  0  0  0  0  0
   10.9227    8.9007   23.2348 C   0  0  0  0  0  0  0  0  0  0  0  0
   11.2765   10.1849   23.5163 O   0  0  0  0  0  0  0  0  0  0  0  0
   10.3948   13.1697   24.5268 C   0  0  0  0  0  0  0  0  0  0  0  0
   10.2368   14.0875   25.3277 O   0  0  0  0  0  0  0  0  0  0  0  0
    9.7610   11.9452   24.5668 N   0  0  0  0  0  0  0  0  0  0  0  0
    8.7001   11.4017   25.2435 C   0  0  0  0  0  0  0  0  0  0  0  0
    7.8074   10.4180   24.7825 C   0  0  0  0  0  0  0  0  0  0  0  0
    6.5485   10.7987   25.1088 N   0  0  0  0  0  0  0  0  0  0  0  0
    6.7334   11.9743   25.7439 N   0  0  0  0  0  0  0  0  0  0  0  0
    6.3992   13.2909   25.2667 C   0  0  2  0  0  0  0  0  0  0  0  0
    5.2798   13.6209   24.3399 C   0  0  0  0  0  0  0  0  0  0  0  0
    5.8088   13.8500   22.9102 C   0  0  0  0  0  0  0  0  0  0  0  0
    7.5263   13.5604   22.9567 S   0  0  0  0  0  0  0  0  0  0  0  0
    7.8594   12.1803   22.7822 O   0  0  0  0  0  0  0  0  0  0  0  0
    8.1962   14.5033   22.1208 O   0  0  0  0  0  0  0  0  0  0  0  0
    7.6047   13.9867   24.6615 C   0  0  0  0  0  0  0  0  0  0  0  0
    7.9850   11.9666   26.2694 C   0  0  0  0  0  0  0  0  0  0  0  0
  1  2  3  0
  2  3  1  0
  3  4  2  0
  4  5  1  0
  5  6  2  0
  6  7  1  0
  7  8  2  0
  8  9  1  0
  3 10  1  0
 10 11  2  0
 10 12  1  0
 12 13  1  0
 13 14  1  0
 14 15  2  0
 15 16  1  0
 17 16  1  6
 17 18  1  0
 18 19  1  0
 19 20  1  0
 20 21  2  0
 20 22  2  0
 20 23  1  0
 16 24  1  0
  9  5  1  0
 24 13  2  0
 23 17  1  0
M  END
$$$$

     RDKit          3D

 24 26  0  0  0  0  0  0  0  0999 V2000
   12.0997   15.7407   22.8559 N   0  0  0  0  0  0  0  0  0  0  0  0
   11.7259   14.6524   23.0090 C   0  0  0  0  0  0  0  0  0  0  0  0
   11.1986   13.3650   23.2945 C   0  0  0  0  0  0  0  0  0  0  0  0
   11.2280   12.4064   22.3740 C   0  0  0  0  0  0  0  0  0  0  0  0
   10.7908   11.0503   22.5526 C   0  0  0  0  0  0  0  0  0  0  0  0
    9.9764   10.2347   21.8299 C   0  0  0  0  0  0  0  0  0  0  0  0
   10.1129    8.8905   22.1460 C   0  0  0  0  0  0  0  0  0  0  0  0
   10.9227    8.9007   23.2348 C   0  0  0  0  0  0  0  0  0  0  0  0
   11.2765   10.1849   23.5163 O   0  0  0  0  0  0  0  0  0  0  0  0
   10.3948   13.1697   24.5268 C   0  0  0  0  0  0  0  0  0  0  0  0
   10.2368   14.0875   25.3277 O   0  0  0  0  0  0  0  0  0  0  0  0
    9.7610   11.9452   24.5668 N   0  0  0  0  0  0  0  0  0  0  0  0
    8.7001   11.4017   25.2435 C   0  0  0  0  0  0  0  0  0  0  0  0
    7.8074   10.4180   24.7825 C   0  0  0  0  0  0  0  0  0  0  0  0
    6.5485   10.7987   25.1088 N   0  0  0  0  0  0  0  0  0  0  0  0
    6.7334   11.9743   25.7439 N   0  0  0  0  0  0  0  0  0  0  0  0
    6.3992   13.2909   25.2667 C   0  0  2  0  0  0  0  0  0  0  0  0
    5.2798   13.6209   24.3399 C   0  0  0  0  0  0  0  0  0  0  0  0
    5.8088   13.8500   22.9102 C   0  0  0  0  0  0  0  0  0  0  0  0
    7.5263   13.5604   22.9567 S   0  0  0  0  0  0  0  0  0  0  0  0
    7.8594   12.1803   22.7822 O   0  0  0  0  0  0  0  0  0  0  0  0
    8.1962   14.5033   22.1208 O   0  0  0  0  0  0  0  0  0  0  0  0
    7.6047   13.9867   24.6615 C   0  0  0  0  0  0  0  0  0  0  0  0
    7.9850   11.9666   26.2694 C   0  0  0  0  0  0  0  0  0  0  0  0
  1  2  3  0
  2  3  1  0
  3  4  2  0
  4  5  1  0
  5  6  2  0
  6  7  1  0
  7  8  2  0
  8  9  1  0
  3 10  1  0
 10 11  2  0
 10 12  1  0
 12 13  1  0
 13 14  1  0
 14 15  2  0
 15 16  1  0
 17 16  1  6
 17 18  1  0
 18 19  1  0
 19 20  1  0
 20 21  2  0
 20 22  2  0
 20 23  1  0
 16 24  1  0
  9  5  1  0
 24 13  2  0
 23 17  1  0
M  END
$$$$

     RDKit          3D

 24 26  0  0  0  0  0  0  0  0999 V2000
   12.0997   15.7407   22.8559 N   0  0  0  0  0  0  0  0  0  0  0  0
   11.7259   14.6524   23.0090 C   0  0  0  0  0  0  0  0  0  0  0  0
   11.1986   13.3650   23.2945 C   0  0  0  0  0  0  0  0  0  0  0  0
   11.2280   12.4064   22.3740 C   0  0  0  0  0  0  0  0  0  0  0  0
   10.7908   11.0503   22.5526 C   0  0  0  0  0  0  0  0  0  0  0  0
    9.9764   10.2347   21.8299 C   0  0  0  0  0  0  0  0  0  0  0  0
   10.1129    8.8905   22.1460 C   0  0  0  0  0  0  0  0  0  0  0  0
   10.9227    8.9007   23.2348 C   0  0  0  0  0  0  0  0  0  0  0  0
   11.2765   10.1849   23.5163 O   0  0  0  0  0  0  0  0  0  0  0  0
   10.3948   13.1697   24.5268 C   0  0  0  0  0  0  0  0  0  0  0  0
   10.2368   14.0875   25.3277 O   0  0  0  0  0  0  0  0  0  0  0  0
    9.7610   11.9452   24.5668 N   0  0  0  0  0  0  0  0  0  0  0  0
    8.7001   11.4017   25.2435 C   0  0  0  0  0  0  0  0  0  0  0  0
    7.8074   10.4180   24.7825 C   0  0  0  0  0  0  0  0  0  0  0  0
    6.5485   10.7987   25.1088 N   0  0  0  0  0  0  0  0  0  0  0  0
    6.7334   11.9743   25.7439 N   0  0  0  0  0  0  0  0  0  0  0  0
    6.3992   13.2909   25.2667 C   0  0  2  0  0  0  0  0  0  0  0  0
    5.2798   13.6209   24.3399 C   0  0  0  0  0  0  0  0  0  0  0  0
    5.8088   13.8500   22.9102 C   0  0  0  0  0  0  0  0  0  0  0  0
    7.5263   13.5604   22.9567 S   0  0  0  0  0  0  0  0  0  0  0  0
    7.8594   12.1803   22.7822 O   0  0  0  0  0  0  0  0  0  0  0  0
    8.1962   14.5033   22.1208 O   0  0  0  0  0  0  0  0  0  0  0  0
    7.6047   13.9867   24.6615 C   0  0  0  0  0  0  0  0  0  0  0  0
    7.9850   11.9666   26.2694 C   0  0  0  0  0  0  0  0  0  0  0  0
  1  2  3  0
  2  3  1  0
  3  4  2  0
  4  5  1  0
  5  6  2  0
  6  7  1  0
  7  8  2  0
  8  9  1  0
  3 10  1  0
 10 11  2  0
 10 12  1  0
 12 13  1  0
 13 14  1  0
 14 15  2  0
 15 16  1  0
 17 16  1  6
 17 18  1  0
 18 19  1  0
 19 20  1  0
 20 21  2  0
 20 22  2  0
 20 23  1  0
 16 24  1  0
  9  5  1  0
 24 13  2  0
 23 17  1  0
M  END
$$$$

     RDKit          3D

 17 18  0  0  0  0  0  0  0  0999 V2000
   10.3818    9.2029   22.2833 N   0  0  0  0  0  0  0  0  0  0  0  0
   10.0045   10.1384   22.8512 C   0  0  0  0  0  0  0  0  0  0  0  0
    9.3552   11.2142   23.5385 C   0  0  0  0  0  0  0  0  0  0  0  0
    9.6265   12.5547   23.3630 C   0  0  0  0  0  0  0  0  0  0  0  0
   10.7074   12.9962   22.5867 N   0  0  0  0  0  0  0  0  0  0  0  0
    8.7969   13.5142   23.9688 C   0  0  0  0  0  0  0  0  0  0  0  0
    7.7391   13.1098   24.7680 C   0  0  0  0  0  0  0  0  0  0  0  0
    6.8889   14.0765   25.2958 N   0  0  0  0  0  0  0  0  0  0  0  0
    5.8231   13.8819   26.1619 C   0  0  0  0  0  0  0  0  0  0  0  0
    5.1079   14.8441   26.4787 O   0  0  0  0  0  0  0  0  0  0  0  0
    5.5927   12.4779   26.7545 C   0  0  0  0  0  0  0  0  0  0  0  0
    6.3364   12.1128   28.0455 C   0  0  0  0  0  0  0  0  0  0  0  0
    5.0187   12.1866   28.8137 C   0  0  0  0  0  0  0  0  0  0  0  0
    4.2698   12.1922   27.4767 C   0  0  0  0  0  0  0  0  0  0  0  0
    7.5254   11.8279   25.0187 N   0  0  0  0  0  0  0  0  0  0  0  0
    8.3204   10.9423   24.3951 C   0  0  0  0  0  0  0  0  0  0  0  0
    7.8884    9.2156   24.7490 Br  0  0  0  0  0  0  0  0  0  0  0  0
  1  2  3  0
  2  3  1  0
  3  4  2  0
  4  5  1  0
  4  6  1  0
  6  7  2  0
  7  8  1  0
  8  9  1  0
  9 10  2  0
  9 11  1  0
 11 12  1  0
 12 13  1  0
 13 14  1  0
  7 15  1  0
 15 16  2  0
 16 17  1  0
 16  3  1  0
 14 11  1  0
M  END
$$$$

     RDKit          3D

 17 18  0  0  0  0  0  0  0  0999 V2000
   10.3818    9.2029   22.2833 N   0  0  0  0  0  0  0  0  0  0  0  0
   10.0045   10.1384   22.8512 C   0  0  0  0  0  0  0  0  0  0  0  0
    9.3552   11.2142   23.5385 C   0  0  0  0  0  0  0  0  0  0  0  0
    9.6265   12.5547   23.3630 C   0  0  0  0  0  0  0  0  0  0  0  0
   10.7074   12.9962   22.5867 N   0  0  0  0  0  0  0  0  0  0  0  0
    8.7969   13.5142   23.9688 C   0  0  0  0  0  0  0  0  0  0  0  0
    7.7391   13.1098   24.7680 C   0  0  0  0  0  0  0  0  0  0  0  0
    6.8889   14.0765   25.2958 N   0  0  0  0  0  0  0  0  0  0  0  0
    5.8231   13.8819   26.1619 C   0  0  0  0  0  0  0  0  0  0  0  0
    5.1079   14.8441   26.4787 O   0  0  0  0  0  0  0  0  0  0  0  0
    5.5927   12.4779   26.7545 C   0  0  0  0  0  0  0  0  0  0  0  0
    6.3364   12.1128   28.0455 C   0  0  0  0  0  0  0  0  0  0  0  0
    5.0187   12.1866   28.8137 C   0  0  0  0  0  0  0  0  0  0  0  0
    4.2698   12.1922   27.4767 C   0  0  0  0  0  0  0  0  0  0  0  0
    7.5254   11.8279   25.0187 N   0  0  0  0  0  0  0  0  0  0  0  0
    8.3204   10.9423   24.3951 C   0  0  0  0  0  0  0  0  0  0  0  0
    7.8884    9.2156   24.7490 Br  0  0  0  0  0  0  0  0  0  0  0  0
  1  2  3  0
  2  3  1  0
  3  4  2  0
  4  5  1  0
  4  6  1  0
  6  7  2  0
  7  8  1  0
  8  9  1  0
  9 10  2  0
  9 11  1  0
 11 12  1  0
 12 13  1  0
 13 14  1  0
  7 15  1  0
 15 16  2  0
 16 17  1  0
 16  3  1  0
 14 11  1  0
M  END
$$$$

     RDKit          3D

 15 16  0  0  0  0  0  0  0  0999 V2000
   10.3987    8.6799   22.3122 N   0  0  0  0  0  0  0  0  0  0  0  0
    9.8217    9.3648   23.0390 C   0  0  0  0  0  0  0  0  0  0  0  0
    9.0621   10.2764   23.8077 C   0  0  0  0  0  0  0  0  0  0  0  0
    8.0638    9.8096   24.6285 C   0  0  0  0  0  0  0  0  0  0  0  0
    7.2061   10.6097   25.3103 N   0  0  0  0  0  0  0  0  0  0  0  0
    7.3484   11.9417   25.1615 C   0  0  0  0  0  0  0  0  0  0  0  0
    8.3455   12.4965   24.4000 C   0  0  0  0  0  0  0  0  0  0  0  0
    9.2345   11.6495   23.7415 C   0  0  0  0  0  0  0  0  0  0  0  0
   10.3085   12.2005   23.0305 N   0  0  0  0  0  0  0  0  0  0  0  0
   10.8864   13.4026   23.3868 C   0  0  0  0  0  0  0  0  0  0  0  0
   10.6968   13.9490   24.4837 O   0  0  0  0  0  0  0  0  0  0  0  0
   11.7714   13.9880   22.2901 C   0  0  0  0  0  0  0  0  0  0  0  0
   12.9151   14.8900   22.7447 C   0  0  0  0  0  0  0  0  0  0  0  0
   12.1344   16.1060   22.2713 C   0  0  0  0  0  0  0  0  0  0  0  0
   11.1929   15.1715   21.5110 C   0  0  0  0  0  0  0  0  0  0  0  0
  1  2  3  0
  2  3  1  0
  3  4  2  0
  4  5  1  0
  5  6  2  0
  6  7  1  0
  7  8  2  0
  8  9  1  0
  9 10  1  0
 10 11  2  0
 10 12  1  0
 12 13  1  0
 13 14  1  0
 14 15  1  0
  8  3  1  0
 15 12  1  0
M  END
$$$$

     RDKit          3D

 15 16  0  0  0  0  0  0  0  0999 V2000
   10.3987    8.6799   22.3122 N   0  0  0  0  0  0  0  0  0  0  0  0
    9.8217    9.3648   23.0390 C   0  0  0  0  0  0  0  0  0  0  0  0
    9.0621   10.2764   23.8077 C   0  0  0  0  0  0  0  0  0  0  0  0
    8.0638    9.8096   24.6285 C   0  0  0  0  0  0  0  0  0  0  0  0
    7.2061   10.6097   25.3103 N   0  0  0  0  0  0  0  0  0  0  0  0
    7.3484   11.9417   25.1615 C   0  0  0  0  0  0  0  0  0  0  0  0
    8.3455   12.4965   24.4000 C   0  0  0  0  0  0  0  0  0  0  0  0
    9.2345   11.6495   23.7415 C   0  0  0  0  0  0  0  0  0  0  0  0
   10.3085   12.2005   23.0305 N   0  0  0  0  0  0  0  0  0  0  0  0
   10.8864   13.4026   23.3868 C   0  0  0  0  0  0  0  0  0  0  0  0
   10.6968   13.9490   24.4837 O   0  0  0  0  0  0  0  0  0  0  0  0
   11.7714   13.9880   22.2901 C   0  0  0  0  0  0  0  0  0  0  0  0
   12.9151   14.8900   22.7447 C   0  0  0  0  0  0  0  0  0  0  0  0
   12.1344   16.1060   22.2713 C   0  0  0  0  0  0  0  0  0  0  0  0
   11.1929   15.1715   21.5110 C   0  0  0  0  0  0  0  0  0  0  0  0
  1  2  3  0
  2  3  1  0
  3  4  2  0
  4  5  1  0
  5  6  2  0
  6  7  1  0
  7  8  2  0
  8  9  1  0
  9 10  1  0
 10 11  2  0
 10 12  1  0
 12 13  1  0
 13 14  1  0
 14 15  1  0
  8  3  1  0
 15 12  1  0
M  END
$$$$

     RDKit          3D

 25 25  0  0  0  0  0  0  0  0999 V2000
    5.5450   12.1845   25.8775 C   0  0  0  0  0  0  0  0  0  0  0  0
    6.3670   10.9275   26.0693 C   0  0  0  0  0  0  0  0  0  0  0  0
    6.6694   10.8737   27.5376 C   0  0  0  0  0  0  0  0  0  0  0  0
    5.4704    9.7467   25.8644 C   0  0  0  0  0  0  0  0  0  0  0  0
    7.5712   10.8983   25.1762 C   0  0  0  0  0  0  0  0  0  0  0  0
    8.2571   12.0086   24.6434 C   0  0  0  0  0  0  0  0  0  0  0  0
    9.2356   11.4954   23.8272 C   0  0  0  0  0  0  0  0  0  0  0  0
   10.2044   12.1063   23.0724 N   0  0  0  0  0  0  0  0  0  0  0  0
   10.4247   13.4583   23.1598 C   0  0  0  0  0  0  0  0  0  0  0  0
    9.8509   14.2247   23.9313 O   0  0  0  0  0  0  0  0  0  0  0  0
   11.5083   13.8881   22.2051 C   0  0  1  0  0  0  0  0  0  0  0  0
   10.8531   14.5097   21.0603 N   0  0  0  0  0  0  0  0  0  0  0  0
   12.5133   14.7831   22.9071 C   0  0  2  0  0  0  0  0  0  0  0  0
   11.9400   16.0846   23.3748 C   0  0  0  0  0  0  0  0  0  0  0  0
   13.4803   15.1905   21.9589 O   0  0  0  0  0  0  0  0  0  0  0  0
   13.1023   13.9955   24.0744 C   0  0  0  0  0  0  0  0  0  0  0  0
   13.4304   12.7361   23.6994 F   0  0  0  0  0  0  0  0  0  0  0  0
   12.2006   13.8572   25.0745 F   0  0  0  0  0  0  0  0  0  0  0  0
   14.2036   14.4905   24.6399 F   0  0  0  0  0  0  0  0  0  0  0  0
    9.0937   10.1355   23.8625 N   0  0  0  0  0  0  0  0  0  0  0  0
    9.7479    9.1656   23.0143 C   0  0  0  0  0  0  0  0  0  0  0  0
    8.7557    8.2105   22.4950 C   0  0  0  0  0  0  0  0  0  0  0  0
   10.2748    9.6974   21.7478 C   0  0  0  0  0  0  0  0  0  0  0  0
   10.9452    8.4758   23.5680 C   0  0  0  0  0  0  0  0  0  0  0  0
    8.1101    9.7527   24.7284 N   0  0  0  0  0  0  0  0  0  0  0  0
  1  2  1  0
  2  3  1  0
  2  4  1  0
  2  5  1  0
  5  6  1  0
  6  7  2  0
  7  8  1  0
  8  9  1  0
  9 10  2  0
  9 11  1  0
 11 12  1  6
 11 13  1  0
 13 14  1  1
 13 15  1  0
 13 16  1  0
 16 17  1  0
 16 18  1  0
 16 19  1  0
  7 20  1  0
 20 21  1  0
 21 22  1  0
 21 23  1  0
 21 24  1  0
 20 25  1  0
 25  5  2  0
M  END
$$$$

     RDKit          3D

 25 25  0  0  0  0  0  0  0  0999 V2000
    5.5450   12.1845   25.8775 C   0  0  0  0  0  0  0  0  0  0  0  0
    6.3670   10.9275   26.0693 C   0  0  0  0  0  0  0  0  0  0  0  0
    6.6694   10.8737   27.5376 C   0  0  0  0  0  0  0  0  0  0  0  0
    5.4704    9.7467   25.8644 C   0  0  0  0  0  0  0  0  0  0  0  0
    7.5712   10.8983   25.1762 C   0  0  0  0  0  0  0  0  0  0  0  0
    8.2571   12.0086   24.6434 C   0  0  0  0  0  0  0  0  0  0  0  0
    9.2356   11.4954   23.8272 C   0  0  0  0  0  0  0  0  0  0  0  0
   10.2044   12.1063   23.0724 N   0  0  0  0  0  0  0  0  0  0  0  0
   10.4247   13.4583   23.1598 C   0  0  0  0  0  0  0  0  0  0  0  0
    9.8509   14.2247   23.9313 O   0  0  0  0  0  0  0  0  0  0  0  0
   11.5083   13.8881   22.2051 C   0  0  1  0  0  0  0  0  0  0  0  0
   10.8531   14.5097   21.0603 N   0  0  0  0  0  0  0  0  0  0  0  0
   12.5133   14.7831   22.9071 C   0  0  2  0  0  0  0  0  0  0  0  0
   11.9400   16.0846   23.3748 C   0  0  0  0  0  0  0  0  0  0  0  0
   13.4803   15.1905   21.9589 O   0  0  0  0  0  0  0  0  0  0  0  0
   13.1023   13.9955   24.0744 C   0  0  0  0  0  0  0  0  0  0  0  0
   13.4304   12.7361   23.6994 F   0  0  0  0  0  0  0  0  0  0  0  0
   12.2006   13.8572   25.0745 F   0  0  0  0  0  0  0  0  0  0  0  0
   14.2036   14.4905   24.6399 F   0  0  0  0  0  0  0  0  0  0  0  0
    9.0937   10.1355   23.8625 N   0  0  0  0  0  0  0  0  0  0  0  0
    9.7479    9.1656   23.0143 C   0  0  0  0  0  0  0  0  0  0  0  0
    8.7557    8.2105   22.4950 C   0  0  0  0  0  0  0  0  0  0  0  0
   10.2748    9.6974   21.7478 C   0  0  0  0  0  0  0  0  0  0  0  0
   10.9452    8.4758   23.5680 C   0  0  0  0  0  0  0  0  0  0  0  0
    8.1101    9.7527   24.7284 N   0  0  0  0  0  0  0  0  0  0  0  0
  1  2  1  0
  2  3  1  0
  2  4  1  0
  2  5  1  0
  5  6  1  0
  6  7  2  0
  7  8  1  0
  8  9  1  0
  9 10  2  0
  9 11  1  0
 11 12  1  6
 11 13  1  0
 13 14  1  1
 13 15  1  0
 13 16  1  0
 16 17  1  0
 16 18  1  0
 16 19  1  0
  7 20  1  0
 20 21  1  0
 21 22  1  0
 21 23  1  0
 21 24  1  0
 20 25  1  0
 25  5  2  0
M  END
$$$$

     RDKit          3D

 25 25  0  0  0  0  0  0  0  0999 V2000
    5.5450   12.1845   25.8775 C   0  0  0  0  0  0  0  0  0  0  0  0
    6.3670   10.9275   26.0693 C   0  0  0  0  0  0  0  0  0  0  0  0
    6.6694   10.8737   27.5376 C   0  0  0  0  0  0  0  0  0  0  0  0
    5.4704    9.7467   25.8644 C   0  0  0  0  0  0  0  0  0  0  0  0
    7.5712   10.8983   25.1762 C   0  0  0  0  0  0  0  0  0  0  0  0
    8.2571   12.0086   24.6434 C   0  0  0  0  0  0  0  0  0  0  0  0
    9.2356   11.4954   23.8272 C   0  0  0  0  0  0  0  0  0  0  0  0
   10.2044   12.1063   23.0724 N   0  0  0  0  0  0  0  0  0  0  0  0
   10.4247   13.4583   23.1598 C   0  0  0  0  0  0  0  0  0  0  0  0
    9.8509   14.2247   23.9313 O   0  0  0  0  0  0  0  0  0  0  0  0
   11.5083   13.8881   22.2051 C   0  0  1  0  0  0  0  0  0  0  0  0
   10.8531   14.5097   21.0603 N   0  0  0  0  0  0  0  0  0  0  0  0
   12.5133   14.7831   22.9071 C   0  0  2  0  0  0  0  0  0  0  0  0
   11.9400   16.0846   23.3748 C   0  0  0  0  0  0  0  0  0  0  0  0
   13.4803   15.1905   21.9589 O   0  0  0  0  0  0  0  0  0  0  0  0
   13.1023   13.9955   24.0744 C   0  0  0  0  0  0  0  0  0  0  0  0
   13.4304   12.7361   23.6994 F   0  0  0  0  0  0  0  0  0  0  0  0
   12.2006   13.8572   25.0745 F   0  0  0  0  0  0  0  0  0  0  0  0
   14.2036   14.4905   24.6399 F   0  0  0  0  0  0  0  0  0  0  0  0
    9.0937   10.1355   23.8625 N   0  0  0  0  0  0  0  0  0  0  0  0
    9.7479    9.1656   23.0143 C   0  0  0  0  0  0  0  0  0  0  0  0
    8.7557    8.2105   22.4950 C   0  0  0  0  0  0  0  0  0  0  0  0
   10.2748    9.6974   21.7478 C   0  0  0  0  0  0  0  0  0  0  0  0
   10.9452    8.4758   23.5680 C   0  0  0  0  0  0  0  0  0  0  0  0
    8.1101    9.7527   24.7284 N   0  0  0  0  0  0  0  0  0  0  0  0
  1  2  1  0
  2  3  1  0
  2  4  1  0
  2  5  1  0
  5  6  1  0
  6  7  2  0
  7  8  1  0
  8  9  1  0
  9 10  2  0
  9 11  1  0
 11 12  1  6
 11 13  1  0
 13 14  1  1
 13 15  1  0
 13 16  1  0
 16 17  1  0
 16 18  1  0
 16 19  1  0
  7 20  1  0
 20 21  1  0
 21 22  1  0
 21 23  1  0
 21 24  1  0
 20 25  1  0
 25  5  2  0
M  END
$$$$

     RDKit          3D

 25 25  0  0  0  0  0  0  0  0999 V2000
    5.5450   12.1845   25.8775 C   0  0  0  0  0  0  0  0  0  0  0  0
    6.3670   10.9275   26.0693 C   0  0  0  0  0  0  0  0  0  0  0  0
    6.6694   10.8737   27.5376 C   0  0  0  0  0  0  0  0  0  0  0  0
    5.4704    9.7467   25.8644 C   0  0  0  0  0  0  0  0  0  0  0  0
    7.5712   10.8983   25.1762 C   0  0  0  0  0  0  0  0  0  0  0  0
    8.2571   12.0086   24.6434 C   0  0  0  0  0  0  0  0  0  0  0  0
    9.2356   11.4954   23.8272 C   0  0  0  0  0  0  0  0  0  0  0  0
   10.2044   12.1063   23.0724 N   0  0  0  0  0  0  0  0  0  0  0  0
   10.4247   13.4583   23.1598 C   0  0  0  0  0  0  0  0  0  0  0  0
    9.8509   14.2247   23.9313 O   0  0  0  0  0  0  0  0  0  0  0  0
   11.5083   13.8881   22.2051 C   0  0  1  0  0  0  0  0  0  0  0  0
   10.8531   14.5097   21.0603 N   0  0  0  0  0  0  0  0  0  0  0  0
   12.5133   14.7831   22.9071 C   0  0  2  0  0  0  0  0  0  0  0  0
   11.9400   16.0846   23.3748 C   0  0  0  0  0  0  0  0  0  0  0  0
   13.4803   15.1905   21.9589 O   0  0  0  0  0  0  0  0  0  0  0  0
   13.1023   13.9955   24.0744 C   0  0  0  0  0  0  0  0  0  0  0  0
   13.4304   12.7361   23.6994 F   0  0  0  0  0  0  0  0  0  0  0  0
   12.2006   13.8572   25.0745 F   0  0  0  0  0  0  0  0  0  0  0  0
   14.2036   14.4905   24.6399 F   0  0  0  0  0  0  0  0  0  0  0  0
    9.0937   10.1355   23.8625 N   0  0  0  0  0  0  0  0  0  0  0  0
    9.7479    9.1656   23.0143 C   0  0  0  0  0  0  0  0  0  0  0  0
    8.7557    8.2105   22.4950 C   0  0  0  0  0  0  0  0  0  0  0  0
   10.2748    9.6974   21.7478 C   0  0  0  0  0  0  0  0  0  0  0  0
   10.9452    8.4758   23.5680 C   0  0  0  0  0  0  0  0  0  0  0  0
    8.1101    9.7527   24.7284 N   0  0  0  0  0  0  0  0  0  0  0  0
  1  2  1  0
  2  3  1  0
  2  4  1  0
  2  5  1  0
  5  6  1  0
  6  7  2  0
  7  8  1  0
  8  9  1  0
  9 10  2  0
  9 11  1  0
 11 12  1  6
 11 13  1  0
 13 14  1  1
 13 15  1  0
 13 16  1  0
 16 17  1  0
 16 18  1  0
 16 19  1  0
  7 20  1  0
 20 21  1  0
 21 22  1  0
 21 23  1  0
 21 24  1  0
 20 25  1  0
 25  5  2  0
M  END
$$$$

     RDKit          3D

 26 26  0  0  0  0  0  0  0  0999 V2000
    5.3408   12.1484   26.0234 C   0  0  0  0  0  0  0  0  0  0  0  0
    6.1839   10.9014   26.1790 C   0  0  0  0  0  0  0  0  0  0  0  0
    6.5805   10.8523   27.6267 C   0  0  0  0  0  0  0  0  0  0  0  0
    5.2998    9.7031   26.0163 C   0  0  0  0  0  0  0  0  0  0  0  0
    7.3436   10.8863   25.2402 C   0  0  0  0  0  0  0  0  0  0  0  0
    7.9835   11.9926   24.6531 C   0  0  0  0  0  0  0  0  0  0  0  0
    9.0415   11.4823   23.9374 C   0  0  0  0  0  0  0  0  0  0  0  0
   10.0839   12.1325   23.3180 N   0  0  0  0  0  0  0  0  0  0  0  0
   10.3443   13.4558   23.6553 C   0  0  0  0  0  0  0  0  0  0  0  0
    9.7697   14.1224   24.5122 O   0  0  0  0  0  0  0  0  0  0  0  0
   11.4068   14.0149   22.8170 C   0  0  1  0  0  0  0  0  0  0  0  0
   10.9097   14.5653   21.4947 C   0  0  0  0  0  0  0  0  0  0  0  0
   12.2616   14.1620   20.4000 P   0  0  0  0  0  0  0  0  0  0  0  0
   11.6075   14.1661   18.7712 C   0  0  0  0  0  0  0  0  0  0  0  0
   13.3495   15.5153   20.6005 C   0  0  0  0  0  0  0  0  0  0  0  0
   12.7875   12.9049   20.9931 O   0  0  0  0  0  0  0  0  0  0  0  0
   12.3107   14.9380   23.5455 C   0  0  0  0  0  0  0  0  0  0  0  0
   13.4907   15.0491   22.9176 F   0  0  0  0  0  0  0  0  0  0  0  0
   12.5777   14.5087   24.7915 F   0  0  0  0  0  0  0  0  0  0  0  0
   11.7830   16.1783   23.5999 F   0  0  0  0  0  0  0  0  0  0  0  0
    8.9341   10.1230   24.0381 N   0  0  0  0  0  0  0  0  0  0  0  0
    9.9179    9.1279   23.6637 C   0  0  0  0  0  0  0  0  0  0  0  0
    9.7397    8.6892   22.2746 C   0  0  0  0  0  0  0  0  0  0  0  0
    8.9336    7.8905   21.8449 O   0  0  0  0  0  0  0  0  0  0  0  0
   10.6181    9.3240   21.4969 O   0  0  0  0  0  0  0  0  0  0  0  0
    7.9283    9.7456   24.8552 N   0  0  0  0  0  0  0  0  0  0  0  0
  1  2  1  0
  2  3  1  0
  2  4  1  0
  2  5  1  0
  5  6  1  0
  6  7  2  0
  7  8  1  0
  8  9  1  0
  9 10  2  0
  9 11  1  0
 11 12  1  6
 12 13  1  0
 13 14  1  0
 13 15  1  0
 13 16  2  0
 11 17  1  0
 17 18  1  0
 17 19  1  0
 17 20  1  0
  7 21  1  0
 21 22  1  0
 22 23  1  0
 23 24  2  0
 23 25  1  0
 21 26  1  0
 26  5  2  0
M  END
$$$$

     RDKit          3D

 23 24  0  0  0  0  0  0  0  0999 V2000
   11.9096   16.6736   21.8927 C   0  0  0  0  0  0  0  0  0  0  0  0
   12.3786   16.0426   23.0756 N   0  0  0  0  0  0  0  0  0  0  0  0
   11.6515   16.2233   24.2865 C   0  0  0  0  0  0  0  0  0  0  0  0
   12.3803   14.6545   22.9057 C   0  0  0  0  0  0  0  0  0  0  0  0
   11.1628   13.8065   22.6769 C   0  0  2  0  0  0  0  0  0  0  0  0
   10.4760   14.1710   21.4936 O   0  0  0  0  0  0  0  0  0  0  0  0
   10.1773   13.4406   23.7893 C   0  0  0  0  0  0  0  0  0  0  0  0
   10.0220   14.0974   24.8146 O   0  0  0  0  0  0  0  0  0  0  0  0
    9.4669   12.2841   23.4783 N   0  0  0  0  0  0  0  0  0  0  0  0
    8.6135   11.5718   24.2816 C   0  0  0  0  0  0  0  0  0  0  0  0
    7.6936   11.9096   25.2572 C   0  0  0  0  0  0  0  0  0  0  0  0
    7.0957   10.6798   25.6693 C   0  0  0  0  0  0  0  0  0  0  0  0
    5.9262   10.5617   26.7307 C   0  0  0  0  0  0  0  0  0  0  0  0
    6.1980    9.9484   28.1171 C   0  0  0  0  0  0  0  0  0  0  0  0
    4.8474    9.2205   28.0557 C   0  0  0  0  0  0  0  0  0  0  0  0
    4.8712    9.4611   26.5464 C   0  0  0  0  0  0  0  0  0  0  0  0
    7.6024    9.6610   24.9696 N   0  0  0  0  0  0  0  0  0  0  0  0
    8.5641   10.2043   24.2021 N   0  0  0  0  0  0  0  0  0  0  0  0
    9.4197    9.3306   23.4119 C   0  0  0  0  0  0  0  0  0  0  0  0
   11.9960   12.6123   22.5015 C   0  0  0  0  0  0  0  0  0  0  0  0
   12.7878   12.7825   21.4267 F   0  0  0  0  0  0  0  0  0  0  0  0
   12.8067   12.4289   23.5918 F   0  0  0  0  0  0  0  0  0  0  0  0
   11.2634   11.4938   22.3807 F   0  0  0  0  0  0  0  0  0  0  0  0
  1  2  1  0
  2  3  1  0
  2  4  1  0
  4  5  1  0
  5  6  1  6
  5  7  1  0
  7  8  2  0
  7  9  1  0
  9 10  1  0
 10 11  2  0
 11 12  1  0
 12 13  1  0
 13 14  1  0
 14 15  1  0
 15 16  1  0
 12 17  2  0
 17 18  1  0
 18 19  1  0
  5 20  1  0
 20 21  1  0
 20 22  1  0
 20 23  1  0
 18 10  1  0
 16 13  1  0
M  END
$$$$

     RDKit          3D

 23 24  0  0  0  0  0  0  0  0999 V2000
   11.9694   15.6881   25.0955 C   0  0  0  0  0  0  0  0  0  0  0  0
   11.6837   15.6840   23.6820 N   0  0  0  0  0  0  0  0  0  0  0  0
   12.1483   16.8144   22.9385 C   0  0  0  0  0  0  0  0  0  0  0  0
   12.3893   14.5748   23.1542 C   0  0  0  0  0  0  0  0  0  0  0  0
   11.4434   13.6135   22.5333 C   0  0  1  0  0  0  0  0  0  0  0  0
   12.2627   12.4807   22.6668 O   0  0  0  0  0  0  0  0  0  0  0  0
   10.1809   13.2538   23.3373 C   0  0  0  0  0  0  0  0  0  0  0  0
    9.5639   14.0259   24.0734 O   0  0  0  0  0  0  0  0  0  0  0  0
    9.8029   11.9206   23.2016 N   0  0  0  0  0  0  0  0  0  0  0  0
    8.8456   11.3129   24.0017 C   0  0  0  0  0  0  0  0  0  0  0  0
    7.8972   11.7571   24.9158 C   0  0  0  0  0  0  0  0  0  0  0  0
    7.2616   10.5864   25.4374 C   0  0  0  0  0  0  0  0  0  0  0  0
    6.0646   10.5834   26.4904 C   0  0  0  0  0  0  0  0  0  0  0  0
    4.9847    9.4957   26.3834 C   0  0  0  0  0  0  0  0  0  0  0  0
    4.9370    9.3650   27.9046 C   0  0  0  0  0  0  0  0  0  0  0  0
    6.2945   10.0796   27.9305 C   0  0  0  0  0  0  0  0  0  0  0  0
    7.7598    9.4998   24.8408 N   0  0  0  0  0  0  0  0  0  0  0  0
    8.7423    9.9520   24.0367 N   0  0  0  0  0  0  0  0  0  0  0  0
    9.5723    9.0085   23.3077 C   0  0  0  0  0  0  0  0  0  0  0  0
   11.1946   14.0449   21.1054 C   0  0  0  0  0  0  0  0  0  0  0  0
   11.2477   15.3861   20.9306 F   0  0  0  0  0  0  0  0  0  0  0  0
    9.9614   13.6949   20.6660 F   0  0  0  0  0  0  0  0  0  0  0  0
   12.1303   13.5703   20.2606 F   0  0  0  0  0  0  0  0  0  0  0  0
  1  2  1  0
  2  3  1  0
  2  4  1  0
  4  5  1  0
  5  6  1  6
  5  7  1  0
  7  8  2  0
  7  9  1  0
  9 10  1  0
 10 11  2  0
 11 12  1  0
 12 13  1  0
 13 14  1  0
 14 15  1  0
 15 16  1  0
 12 17  2  0
 17 18  1  0
 18 19  1  0
  5 20  1  0
 20 21  1  0
 20 22  1  0
 20 23  1  0
 18 10  1  0
 16 13  1  0
M  END
$$$$

     RDKit          3D

 22 22  0  0  0  0  0  0  0  0999 V2000
    4.9549    9.8080   27.7091 C   0  0  0  0  0  0  0  0  0  0  0  0
    6.3060   10.2535   27.2079 C   0  0  0  0  0  0  0  0  0  0  0  0
    6.2162   10.6840   25.7721 C   0  0  0  0  0  0  0  0  0  0  0  0
    7.4925   10.6913   25.0332 C   0  0  0  0  0  0  0  0  0  0  0  0
    8.2025   11.8192   24.5900 C   0  0  0  0  0  0  0  0  0  0  0  0
    9.2269   11.3207   23.8172 C   0  0  0  0  0  0  0  0  0  0  0  0
   10.2689   11.9455   23.1783 N   0  0  0  0  0  0  0  0  0  0  0  0
   10.5606   13.2675   23.4622 C   0  0  0  0  0  0  0  0  0  0  0  0
    9.9650   13.9866   24.2605 O   0  0  0  0  0  0  0  0  0  0  0  0
   11.6809   13.7426   22.6212 C   0  0  1  0  0  0  0  0  0  0  0  0
   11.0916   14.2477   21.3265 C   0  0  0  0  0  0  0  0  0  0  0  0
   12.2616   14.2626   20.0000 P   0  0  0  0  0  0  0  0  0  0  0  0
   11.4203   14.9696   18.6245 C   0  0  0  0  0  0  0  0  0  0  0  0
   13.4576   15.4017   20.5747 C   0  0  0  0  0  0  0  0  0  0  0  0
   12.7858   12.9078   19.7116 O   0  0  0  0  0  0  0  0  0  0  0  0
   12.4169   14.7991   23.3850 C   0  0  0  0  0  0  0  0  0  0  0  0
   11.7553   15.9730   23.4122 F   0  0  0  0  0  0  0  0  0  0  0  0
   12.6812   14.4056   24.6463 F   0  0  0  0  0  0  0  0  0  0  0  0
   13.6071   15.0450   22.8246 F   0  0  0  0  0  0  0  0  0  0  0  0
    9.0709    9.9674   23.8175 N   0  0  0  0  0  0  0  0  0  0  0  0
    9.9058    8.9910   23.1444 C   0  0  0  0  0  0  0  0  0  0  0  0
    8.0229    9.5593   24.5589 N   0  0  0  0  0  0  0  0  0  0  0  0
  1  2  1  0
  2  3  1  0
  3  4  1  0
  4  5  1  0
  5  6  2  0
  6  7  1  0
  7  8  1  0
  8  9  2  0
  8 10  1  0
 10 11  1  6
 11 12  1  0
 12 13  1  0
 12 14  1  0
 12 15  2  0
 10 16  1  0
 16 17  1  0
 16 18  1  0
 16 19  1  0
  6 20  1  0
 20 21  1  0
 20 22  1  0
 22  4  2  0
M  END
$$$$

     RDKit          3D

 21 21  0  0  0  0  0  0  0  0999 V2000
    9.2031   15.7895   19.3390 C   0  0  0  0  0  0  0  0  0  0  0  0
   10.0990   14.6156   19.5975 C   0  0  1  0  0  0  0  0  0  0  0  0
   11.2222   14.6726   18.7212 C   0  0  0  0  0  0  0  0  0  0  0  0
   12.0858   14.7894   17.9732 N   0  0  0  0  0  0  0  0  0  0  0  0
   10.4179   14.4642   21.0330 C   0  0  0  0  0  0  0  0  0  0  0  0
    9.5939   14.7221   21.9111 O   0  0  0  0  0  0  0  0  0  0  0  0
   11.6225   13.8767   21.2941 N   0  0  0  0  0  0  0  0  0  0  0  0
   12.1904   13.7773   22.5996 C   0  0  1  0  0  0  0  0  0  0  0  0
   12.6319   15.1517   23.0406 C   0  0  0  0  0  0  0  0  0  0  0  0
   11.2326   13.2039   23.6295 C   0  0  0  0  0  0  0  0  0  0  0  0
   11.2233   13.6187   24.7969 O   0  0  0  0  0  0  0  0  0  0  0  0
   10.4379   12.1320   23.2216 N   0  0  0  0  0  0  0  0  0  0  0  0
    9.2322   12.0027   23.8893 C   0  0  0  0  0  0  0  0  0  0  0  0
    8.4960   10.9264   24.3236 C   0  0  0  0  0  0  0  0  0  0  0  0
    7.4740   11.5164   25.1483 C   0  0  0  0  0  0  0  0  0  0  0  0
    6.4113   10.8072   25.9295 C   0  0  0  0  0  0  0  0  0  0  0  0
    6.0362    9.6909   25.2787 F   0  0  0  0  0  0  0  0  0  0  0  0
    5.2945   11.5563   26.1304 F   0  0  0  0  0  0  0  0  0  0  0  0
    6.8197   10.4121   27.1621 F   0  0  0  0  0  0  0  0  0  0  0  0
    7.5485   12.8607   25.1447 N   0  0  0  0  0  0  0  0  0  0  0  0
    8.5585   13.1096   24.3157 N   0  0  0  0  0  0  0  0  0  0  0  0
  2  1  1  1
  2  3  1  0
  3  4  3  0
  2  5  1  0
  5  6  2  0
  5  7  1  0
  7  8  1  0
  8  9  1  1
  8 10  1  0
 10 11  2  0
 10 12  1  0
 12 13  1  0
 13 14  2  0
 14 15  1  0
 15 16  1  0
 16 17  1  0
 16 18  1  0
 16 19  1  0
 15 20  2  0
 20 21  1  0
 21 13  1  0
M  END
$$$$

     RDKit          3D

 21 21  0  0  0  0  0  0  0  0999 V2000
   14.6193   13.7126   25.6368 C   0  0  0  0  0  0  0  0  0  0  0  0
   14.2019   12.4314   25.0276 C   0  0  2  0  0  0  0  0  0  0  0  0
   15.3684   11.6715   24.6805 C   0  0  0  0  0  0  0  0  0  0  0  0
   16.3587   11.2741   24.2401 N   0  0  0  0  0  0  0  0  0  0  0  0
   13.1411   12.6147   23.9994 C   0  0  0  0  0  0  0  0  0  0  0  0
   12.2533   11.7763   23.8824 O   0  0  0  0  0  0  0  0  0  0  0  0
   13.0778   13.7561   23.2650 N   0  0  0  0  0  0  0  0  0  0  0  0
   11.9816   13.8777   22.3050 C   0  0  2  0  0  0  0  0  0  0  0  0
   12.0179   15.2900   21.7755 C   0  0  0  0  0  0  0  0  0  0  0  0
   10.7338   13.7514   23.1731 C   0  0  0  0  0  0  0  0  0  0  0  0
   10.5450   14.4818   24.1547 O   0  0  0  0  0  0  0  0  0  0  0  0
    9.9658   12.6089   22.9082 N   0  0  0  0  0  0  0  0  0  0  0  0
    8.9255   12.3323   23.7785 C   0  0  0  0  0  0  0  0  0  0  0  0
    8.3338   11.1668   24.2108 C   0  0  0  0  0  0  0  0  0  0  0  0
    7.3822   11.6036   25.1989 C   0  0  0  0  0  0  0  0  0  0  0  0
    6.3883   10.7781   25.9504 C   0  0  0  0  0  0  0  0  0  0  0  0
    6.1038    9.6629   25.2536 F   0  0  0  0  0  0  0  0  0  0  0  0
    5.2159   11.4302   26.1722 F   0  0  0  0  0  0  0  0  0  0  0  0
    6.8248   10.3735   27.1688 F   0  0  0  0  0  0  0  0  0  0  0  0
    7.4192   12.9371   25.3652 N   0  0  0  0  0  0  0  0  0  0  0  0
    8.3064   13.3311   24.4632 N   0  0  0  0  0  0  0  0  0  0  0  0
  2  1  1  6
  2  3  1  0
  3  4  3  0
  2  5  1  0
  5  6  2  0
  5  7  1  0
  7  8  1  0
  8  9  1  1
  8 10  1  0
 10 11  2  0
 10 12  1  0
 12 13  1  0
 13 14  2  0
 14 15  1  0
 15 16  1  0
 16 17  1  0
 16 18  1  0
 16 19  1  0
 15 20  2  0
 20 21  1  0
 21 13  1  0
M  END
$$$$

     RDKit          3D

 21 21  0  0  0  0  0  0  0  0999 V2000
    9.2031   15.7895   19.3390 C   0  0  0  0  0  0  0  0  0  0  0  0
   10.0990   14.6156   19.5975 C   0  0  1  0  0  0  0  0  0  0  0  0
   11.2222   14.6726   18.7212 C   0  0  0  0  0  0  0  0  0  0  0  0
   12.0858   14.7894   17.9732 N   0  0  0  0  0  0  0  0  0  0  0  0
   10.4179   14.4642   21.0330 C   0  0  0  0  0  0  0  0  0  0  0  0
    9.5939   14.7221   21.9111 O   0  0  0  0  0  0  0  0  0  0  0  0
   11.6225   13.8767   21.2941 N   0  0  0  0  0  0  0  0  0  0  0  0
   12.1904   13.7773   22.5996 C   0  0  1  0  0  0  0  0  0  0  0  0
   12.6319   15.1517   23.0406 C   0  0  0  0  0  0  0  0  0  0  0  0
   11.2326   13.2039   23.6295 C   0  0  0  0  0  0  0  0  0  0  0  0
   11.2233   13.6187   24.7969 O   0  0  0  0  0  0  0  0  0  0  0  0
   10.4379   12.1320   23.2216 N   0  0  0  0  0  0  0  0  0  0  0  0
    9.2322   12.0027   23.8893 C   0  0  0  0  0  0  0  0  0  0  0  0
    8.4960   10.9264   24.3236 C   0  0  0  0  0  0  0  0  0  0  0  0
    7.4740   11.5164   25.1483 C   0  0  0  0  0  0  0  0  0  0  0  0
    6.4113   10.8072   25.9295 C   0  0  0  0  0  0  0  0  0  0  0  0
    6.0362    9.6909   25.2787 F   0  0  0  0  0  0  0  0  0  0  0  0
    5.2945   11.5563   26.1304 F   0  0  0  0  0  0  0  0  0  0  0  0
    6.8197   10.4121   27.1621 F   0  0  0  0  0  0  0  0  0  0  0  0
    7.5485   12.8607   25.1447 N   0  0  0  0  0  0  0  0  0  0  0  0
    8.5585   13.1096   24.3157 N   0  0  0  0  0  0  0  0  0  0  0  0
  2  1  1  1
  2  3  1  0
  3  4  3  0
  2  5  1  0
  5  6  2  0
  5  7  1  0
  7  8  1  0
  8  9  1  1
  8 10  1  0
 10 11  2  0
 10 12  1  0
 12 13  1  0
 13 14  2  0
 14 15  1  0
 15 16  1  0
 16 17  1  0
 16 18  1  0
 16 19  1  0
 15 20  2  0
 20 21  1  0
 21 13  1  0
M  END
$$$$

     RDKit          3D

 21 21  0  0  0  0  0  0  0  0999 V2000
   14.6193   13.7126   25.6368 C   0  0  0  0  0  0  0  0  0  0  0  0
   14.2019   12.4314   25.0276 C   0  0  2  0  0  0  0  0  0  0  0  0
   15.3684   11.6715   24.6805 C   0  0  0  0  0  0  0  0  0  0  0  0
   16.3587   11.2741   24.2401 N   0  0  0  0  0  0  0  0  0  0  0  0
   13.1411   12.6147   23.9994 C   0  0  0  0  0  0  0  0  0  0  0  0
   12.2533   11.7763   23.8824 O   0  0  0  0  0  0  0  0  0  0  0  0
   13.0778   13.7561   23.2650 N   0  0  0  0  0  0  0  0  0  0  0  0
   11.9816   13.8777   22.3050 C   0  0  2  0  0  0  0  0  0  0  0  0
   12.0179   15.2900   21.7755 C   0  0  0  0  0  0  0  0  0  0  0  0
   10.7338   13.7514   23.1731 C   0  0  0  0  0  0  0  0  0  0  0  0
   10.5450   14.4818   24.1547 O   0  0  0  0  0  0  0  0  0  0  0  0
    9.9658   12.6089   22.9082 N   0  0  0  0  0  0  0  0  0  0  0  0
    8.9255   12.3323   23.7785 C   0  0  0  0  0  0  0  0  0  0  0  0
    8.3338   11.1668   24.2108 C   0  0  0  0  0  0  0  0  0  0  0  0
    7.3822   11.6036   25.1989 C   0  0  0  0  0  0  0  0  0  0  0  0
    6.3883   10.7781   25.9504 C   0  0  0  0  0  0  0  0  0  0  0  0
    6.1038    9.6629   25.2536 F   0  0  0  0  0  0  0  0  0  0  0  0
    5.2159   11.4302   26.1722 F   0  0  0  0  0  0  0  0  0  0  0  0
    6.8248   10.3735   27.1688 F   0  0  0  0  0  0  0  0  0  0  0  0
    7.4192   12.9371   25.3652 N   0  0  0  0  0  0  0  0  0  0  0  0
    8.3064   13.3311   24.4632 N   0  0  0  0  0  0  0  0  0  0  0  0
  2  1  1  6
  2  3  1  0
  3  4  3  0
  2  5  1  0
  5  6  2  0
  5  7  1  0
  7  8  1  0
  8  9  1  1
  8 10  1  0
 10 11  2  0
 10 12  1  0
 12 13  1  0
 13 14  2  0
 14 15  1  0
 15 16  1  0
 16 17  1  0
 16 18  1  0
 16 19  1  0
 15 20  2  0
 20 21  1  0
 21 13  1  0
M  END
$$$$

     RDKit          3D

 21 21  0  0  0  0  0  0  0  0999 V2000
    9.2031   15.7895   19.3390 C   0  0  0  0  0  0  0  0  0  0  0  0
   10.0990   14.6156   19.5975 C   0  0  1  0  0  0  0  0  0  0  0  0
   11.2222   14.6726   18.7212 C   0  0  0  0  0  0  0  0  0  0  0  0
   12.0858   14.7894   17.9732 N   0  0  0  0  0  0  0  0  0  0  0  0
   10.4179   14.4642   21.0330 C   0  0  0  0  0  0  0  0  0  0  0  0
    9.5939   14.7221   21.9111 O   0  0  0  0  0  0  0  0  0  0  0  0
   11.6225   13.8767   21.2941 N   0  0  0  0  0  0  0  0  0  0  0  0
   12.1904   13.7773   22.5996 C   0  0  1  0  0  0  0  0  0  0  0  0
   12.6319   15.1517   23.0406 C   0  0  0  0  0  0  0  0  0  0  0  0
   11.2326   13.2039   23.6295 C   0  0  0  0  0  0  0  0  0  0  0  0
   11.2233   13.6187   24.7969 O   0  0  0  0  0  0  0  0  0  0  0  0
   10.4379   12.1320   23.2216 N   0  0  0  0  0  0  0  0  0  0  0  0
    9.2322   12.0027   23.8893 C   0  0  0  0  0  0  0  0  0  0  0  0
    8.4960   10.9264   24.3236 C   0  0  0  0  0  0  0  0  0  0  0  0
    7.4740   11.5164   25.1483 C   0  0  0  0  0  0  0  0  0  0  0  0
    6.4113   10.8072   25.9295 C   0  0  0  0  0  0  0  0  0  0  0  0
    6.0362    9.6909   25.2787 F   0  0  0  0  0  0  0  0  0  0  0  0
    5.2945   11.5563   26.1304 F   0  0  0  0  0  0  0  0  0  0  0  0
    6.8197   10.4121   27.1621 F   0  0  0  0  0  0  0  0  0  0  0  0
    7.5485   12.8607   25.1447 N   0  0  0  0  0  0  0  0  0  0  0  0
    8.5585   13.1096   24.3157 N   0  0  0  0  0  0  0  0  0  0  0  0
  2  1  1  1
  2  3  1  0
  3  4  3  0
  2  5  1  0
  5  6  2  0
  5  7  1  0
  7  8  1  0
  8  9  1  1
  8 10  1  0
 10 11  2  0
 10 12  1  0
 12 13  1  0
 13 14  2  0
 14 15  1  0
 15 16  1  0
 16 17  1  0
 16 18  1  0
 16 19  1  0
 15 20  2  0
 20 21  1  0
 21 13  1  0
M  END
$$$$

     RDKit          3D

 21 21  0  0  0  0  0  0  0  0999 V2000
   14.6193   13.7126   25.6368 C   0  0  0  0  0  0  0  0  0  0  0  0
   14.2019   12.4314   25.0276 C   0  0  2  0  0  0  0  0  0  0  0  0
   15.3684   11.6715   24.6805 C   0  0  0  0  0  0  0  0  0  0  0  0
   16.3587   11.2741   24.2401 N   0  0  0  0  0  0  0  0  0  0  0  0
   13.1411   12.6147   23.9994 C   0  0  0  0  0  0  0  0  0  0  0  0
   12.2533   11.7763   23.8824 O   0  0  0  0  0  0  0  0  0  0  0  0
   13.0778   13.7561   23.2650 N   0  0  0  0  0  0  0  0  0  0  0  0
   11.9816   13.8777   22.3050 C   0  0  2  0  0  0  0  0  0  0  0  0
   12.0179   15.2900   21.7755 C   0  0  0  0  0  0  0  0  0  0  0  0
   10.7338   13.7514   23.1731 C   0  0  0  0  0  0  0  0  0  0  0  0
   10.5450   14.4818   24.1547 O   0  0  0  0  0  0  0  0  0  0  0  0
    9.9658   12.6089   22.9082 N   0  0  0  0  0  0  0  0  0  0  0  0
    8.9255   12.3323   23.7785 C   0  0  0  0  0  0  0  0  0  0  0  0
    8.3338   11.1668   24.2108 C   0  0  0  0  0  0  0  0  0  0  0  0
    7.3822   11.6036   25.1989 C   0  0  0  0  0  0  0  0  0  0  0  0
    6.3883   10.7781   25.9504 C   0  0  0  0  0  0  0  0  0  0  0  0
    6.1038    9.6629   25.2536 F   0  0  0  0  0  0  0  0  0  0  0  0
    5.2159   11.4302   26.1722 F   0  0  0  0  0  0  0  0  0  0  0  0
    6.8248   10.3735   27.1688 F   0  0  0  0  0  0  0  0  0  0  0  0
    7.4192   12.9371   25.3652 N   0  0  0  0  0  0  0  0  0  0  0  0
    8.3064   13.3311   24.4632 N   0  0  0  0  0  0  0  0  0  0  0  0
  2  1  1  6
  2  3  1  0
  3  4  3  0
  2  5  1  0
  5  6  2  0
  5  7  1  0
  7  8  1  0
  8  9  1  1
  8 10  1  0
 10 11  2  0
 10 12  1  0
 12 13  1  0
 13 14  2  0
 14 15  1  0
 15 16  1  0
 16 17  1  0
 16 18  1  0
 16 19  1  0
 15 20  2  0
 20 21  1  0
 21 13  1  0
M  END
$$$$

     RDKit          3D

 21 21  0  0  0  0  0  0  0  0999 V2000
    9.2031   15.7895   19.3390 C   0  0  0  0  0  0  0  0  0  0  0  0
   10.0990   14.6156   19.5975 C   0  0  1  0  0  0  0  0  0  0  0  0
   11.2222   14.6726   18.7212 C   0  0  0  0  0  0  0  0  0  0  0  0
   12.0858   14.7894   17.9732 N   0  0  0  0  0  0  0  0  0  0  0  0
   10.4179   14.4642   21.0330 C   0  0  0  0  0  0  0  0  0  0  0  0
    9.5939   14.7221   21.9111 O   0  0  0  0  0  0  0  0  0  0  0  0
   11.6225   13.8767   21.2941 N   0  0  0  0  0  0  0  0  0  0  0  0
   12.1904   13.7773   22.5996 C   0  0  1  0  0  0  0  0  0  0  0  0
   12.6319   15.1517   23.0406 C   0  0  0  0  0  0  0  0  0  0  0  0
   11.2326   13.2039   23.6295 C   0  0  0  0  0  0  0  0  0  0  0  0
   11.2233   13.6187   24.7969 O   0  0  0  0  0  0  0  0  0  0  0  0
   10.4379   12.1320   23.2216 N   0  0  0  0  0  0  0  0  0  0  0  0
    9.2322   12.0027   23.8893 C   0  0  0  0  0  0  0  0  0  0  0  0
    8.4960   10.9264   24.3236 C   0  0  0  0  0  0  0  0  0  0  0  0
    7.4740   11.5164   25.1483 C   0  0  0  0  0  0  0  0  0  0  0  0
    6.4113   10.8072   25.9295 C   0  0  0  0  0  0  0  0  0  0  0  0
    6.0362    9.6909   25.2787 F   0  0  0  0  0  0  0  0  0  0  0  0
    5.2945   11.5563   26.1304 F   0  0  0  0  0  0  0  0  0  0  0  0
    6.8197   10.4121   27.1621 F   0  0  0  0  0  0  0  0  0  0  0  0
    7.5485   12.8607   25.1447 N   0  0  0  0  0  0  0  0  0  0  0  0
    8.5585   13.1096   24.3157 N   0  0  0  0  0  0  0  0  0  0  0  0
  2  1  1  1
  2  3  1  0
  3  4  3  0
  2  5  1  0
  5  6  2  0
  5  7  1  0
  7  8  1  0
  8  9  1  1
  8 10  1  0
 10 11  2  0
 10 12  1  0
 12 13  1  0
 13 14  2  0
 14 15  1  0
 15 16  1  0
 16 17  1  0
 16 18  1  0
 16 19  1  0
 15 20  2  0
 20 21  1  0
 21 13  1  0
M  END
$$$$

     RDKit          3D

 21 21  0  0  0  0  0  0  0  0999 V2000
   14.6193   13.7126   25.6368 C   0  0  0  0  0  0  0  0  0  0  0  0
   14.2019   12.4314   25.0276 C   0  0  2  0  0  0  0  0  0  0  0  0
   15.3684   11.6715   24.6805 C   0  0  0  0  0  0  0  0  0  0  0  0
   16.3587   11.2741   24.2401 N   0  0  0  0  0  0  0  0  0  0  0  0
   13.1411   12.6147   23.9994 C   0  0  0  0  0  0  0  0  0  0  0  0
   12.2533   11.7763   23.8824 O   0  0  0  0  0  0  0  0  0  0  0  0
   13.0778   13.7561   23.2650 N   0  0  0  0  0  0  0  0  0  0  0  0
   11.9816   13.8777   22.3050 C   0  0  2  0  0  0  0  0  0  0  0  0
   12.0179   15.2900   21.7755 C   0  0  0  0  0  0  0  0  0  0  0  0
   10.7338   13.7514   23.1731 C   0  0  0  0  0  0  0  0  0  0  0  0
   10.5450   14.4818   24.1547 O   0  0  0  0  0  0  0  0  0  0  0  0
    9.9658   12.6089   22.9082 N   0  0  0  0  0  0  0  0  0  0  0  0
    8.9255   12.3323   23.7785 C   0  0  0  0  0  0  0  0  0  0  0  0
    8.3338   11.1668   24.2108 C   0  0  0  0  0  0  0  0  0  0  0  0
    7.3822   11.6036   25.1989 C   0  0  0  0  0  0  0  0  0  0  0  0
    6.3883   10.7781   25.9504 C   0  0  0  0  0  0  0  0  0  0  0  0
    6.1038    9.6629   25.2536 F   0  0  0  0  0  0  0  0  0  0  0  0
    5.2159   11.4302   26.1722 F   0  0  0  0  0  0  0  0  0  0  0  0
    6.8248   10.3735   27.1688 F   0  0  0  0  0  0  0  0  0  0  0  0
    7.4192   12.9371   25.3652 N   0  0  0  0  0  0  0  0  0  0  0  0
    8.3064   13.3311   24.4632 N   0  0  0  0  0  0  0  0  0  0  0  0
  2  1  1  6
  2  3  1  0
  3  4  3  0
  2  5  1  0
  5  6  2  0
  5  7  1  0
  7  8  1  0
  8  9  1  1
  8 10  1  0
 10 11  2  0
 10 12  1  0
 12 13  1  0
 13 14  2  0
 14 15  1  0
 15 16  1  0
 16 17  1  0
 16 18  1  0
 16 19  1  0
 15 20  2  0
 20 21  1  0
 21 13  1  0
M  END
$$$$

     RDKit          3D

 23 24  0  0  0  0  0  0  0  0999 V2000
    9.8350    9.0034   23.1695 C   0  0  0  0  0  0  0  0  0  0  0  0
    8.9941    9.9421   23.9404 C   0  0  0  0  0  0  0  0  0  0  0  0
    9.0839   11.3402   23.9738 C   0  0  0  0  0  0  0  0  0  0  0  0
    8.0652   11.7513   24.8088 C   0  0  0  0  0  0  0  0  0  0  0  0
    7.7278   13.0686   25.0251 N   0  0  0  0  0  0  0  0  0  0  0  0
    6.7091   13.5458   25.8185 C   0  0  0  0  0  0  0  0  0  0  0  0
    5.8872   12.9019   26.4539 O   0  0  0  0  0  0  0  0  0  0  0  0
    6.6842   15.0318   25.7716 C   0  0  1  0  0  0  0  0  0  0  0  0
    5.5655   15.4773   24.8710 C   0  0  0  0  0  0  0  0  0  0  0  0
    5.9680   15.2692   23.5271 O   0  0  0  0  0  0  0  0  0  0  0  0
    6.4665   15.5353   27.1592 C   0  0  0  0  0  0  0  0  0  0  0  0
    6.5571   16.8879   27.1743 F   0  0  0  0  0  0  0  0  0  0  0  0
    5.2656   15.2134   27.6745 F   0  0  0  0  0  0  0  0  0  0  0  0
    7.4301   15.0859   27.9958 F   0  0  0  0  0  0  0  0  0  0  0  0
    7.4732   10.5918   25.3032 N   0  0  0  0  0  0  0  0  0  0  0  0
    6.1168   10.5109   25.8160 C   0  0  0  0  0  0  0  0  0  0  0  0
    5.6992    9.7909   27.0577 C   0  0  0  0  0  0  0  0  0  0  0  0
    4.5344    9.0160   26.9387 C   0  0  0  0  0  0  0  0  0  0  0  0
    3.8995    8.5188   28.0498 C   0  0  0  0  0  0  0  0  0  0  0  0
    4.4642    8.8164   29.2660 C   0  0  0  0  0  0  0  0  0  0  0  0
    5.6204    9.5849   29.3090 C   0  0  0  0  0  0  0  0  0  0  0  0
    6.2342   10.1236   28.2438 N   0  0  0  0  0  0  0  0  0  0  0  0
    7.9802    9.5008   24.6885 N   0  0  0  0  0  0  0  0  0  0  0  0
  1  2  1  0
  2  3  1  0
  3  4  2  0
  4  5  1  0
  5  6  1  0
  6  7  2  0
  6  8  1  0
  8  9  1  6
  9 10  1  0
  8 11  1  0
 11 12  1  0
 11 13  1  0
 11 14  1  0
  4 15  1  0
 15 16  1  0
 16 17  1  0
 17 18  2  0
 18 19  1  0
 19 20  2  0
 20 21  1  0
 21 22  2  0
 15 23  1  0
 23  2  2  0
 22 17  1  0
M  END
$$$$

     RDKit          3D

 18 19  0  0  0  0  0  0  0  0999 V2000
    1.8249   12.0144   28.2992 C   0  0  0  0  0  0  0  0  0  0  0  0
    3.3212   11.8493   28.2170 C   0  0  2  0  0  0  0  0  0  0  0  0
    3.9758   12.4723   29.4257 C   0  0  0  0  0  0  0  0  0  0  0  0
    5.4726   12.6559   29.2816 C   0  0  0  0  0  0  0  0  0  0  0  0
    6.0579   11.9720   28.0651 C   0  0  0  0  0  0  0  0  0  0  0  0
    5.3233   12.3025   26.7773 C   0  0  2  0  0  0  0  0  0  0  0  0
    5.9390   13.5211   26.1350 C   0  0  0  0  0  0  0  0  0  0  0  0
    5.5014   14.6478   26.3723 O   0  0  0  0  0  0  0  0  0  0  0  0
    7.0594   13.3331   25.3567 N   0  0  0  0  0  0  0  0  0  0  0  0
    7.6932   12.1652   24.9067 C   0  0  0  0  0  0  0  0  0  0  0  0
    7.2251   10.9059   25.2450 C   0  0  0  0  0  0  0  0  0  0  0  0
    7.9074    9.8044   24.7713 C   0  0  0  0  0  0  0  0  0  0  0  0
    8.9689    9.8732   23.9539 N   0  0  0  0  0  0  0  0  0  0  0  0
    9.4182   11.0981   23.6374 C   0  0  0  0  0  0  0  0  0  0  0  0
    8.8362   12.2575   24.1101 C   0  0  0  0  0  0  0  0  0  0  0  0
    9.5435   13.4611   23.8826 C   0  0  0  0  0  0  0  0  0  0  0  0
   10.2067   14.4038   23.7872 N   0  0  0  0  0  0  0  0  0  0  0  0
    3.8355   12.5074   26.9632 C   0  0  0  0  0  0  0  0  0  0  0  0
  2  1  1  1
  2  3  1  0
  3  4  1  0
  4  5  1  0
  5  6  1  0
  6  7  1  1
  7  8  2  0
  7  9  1  0
  9 10  1  0
 10 11  2  0
 11 12  1  0
 12 13  2  0
 13 14  1  0
 14 15  2  0
 15 16  1  0
 16 17  3  0
  6 18  1  0
 18  2  1  0
 15 10  1  0
M  END
$$$$

     RDKit          3D

 18 19  0  0  0  0  0  0  0  0999 V2000
    1.8456   12.9200   28.1811 C   0  0  0  0  0  0  0  0  0  0  0  0
    3.3422   13.0936   28.1099 C   0  0  1  0  0  0  0  0  0  0  0  0
    3.9834   12.5554   29.3644 C   0  0  0  0  0  0  0  0  0  0  0  0
    5.4855   12.7149   29.2960 C   0  0  0  0  0  0  0  0  0  0  0  0
    6.0610   11.9691   28.1121 C   0  0  0  0  0  0  0  0  0  0  0  0
    5.3672   12.2950   26.8057 C   0  0  2  0  0  0  0  0  0  0  0  0
    5.9542   13.5189   26.1508 C   0  0  0  0  0  0  0  0  0  0  0  0
    5.5000   14.6396   26.3818 O   0  0  0  0  0  0  0  0  0  0  0  0
    7.0708   13.3379   25.3641 N   0  0  0  0  0  0  0  0  0  0  0  0
    7.7033   12.1702   24.9095 C   0  0  0  0  0  0  0  0  0  0  0  0
    7.2343   10.9100   25.2444 C   0  0  0  0  0  0  0  0  0  0  0  0
    7.9135    9.8085   24.7663 C   0  0  0  0  0  0  0  0  0  0  0  0
    8.9734    9.8784   23.9470 N   0  0  0  0  0  0  0  0  0  0  0  0
    9.4234   11.1038   23.6328 C   0  0  0  0  0  0  0  0  0  0  0  0
    8.8441   12.2628   24.1100 C   0  0  0  0  0  0  0  0  0  0  0  0
    9.5530   13.4658   23.8847 C   0  0  0  0  0  0  0  0  0  0  0  0
   10.2178   14.4076   23.7914 N   0  0  0  0  0  0  0  0  0  0  0  0
    3.8635   12.3586   26.9028 C   0  0  0  0  0  0  0  0  0  0  0  0
  2  1  1  1
  2  3  1  0
  3  4  1  0
  4  5  1  0
  5  6  1  0
  6  7  1  1
  7  8  2  0
  7  9  1  0
  9 10  1  0
 10 11  2  0
 11 12  1  0
 12 13  2  0
 13 14  1  0
 14 15  2  0
 15 16  1  0
 16 17  3  0
  6 18  1  0
 18  2  1  0
 15 10  1  0
M  END
$$$$

     RDKit          3D

 18 19  0  0  0  0  0  0  0  0999 V2000
   10.1199   15.5411   19.8321 C   0  0  0  0  0  0  0  0  0  0  0  0
   10.7548   15.2473   21.1666 C   0  0  2  0  0  0  0  0  0  0  0  0
   11.7469   16.3049   21.5809 C   0  0  0  0  0  0  0  0  0  0  0  0
   12.2272   16.0405   22.9767 C   0  0  0  0  0  0  0  0  0  0  0  0
   12.9379   14.7160   23.0230 C   0  0  0  0  0  0  0  0  0  0  0  0
   12.0958   13.5952   22.4665 C   0  0  1  0  0  0  0  0  0  0  0  0
   11.0257   13.2200   23.4492 C   0  0  0  0  0  0  0  0  0  0  0  0
   10.8195   13.8215   24.5051 O   0  0  0  0  0  0  0  0  0  0  0  0
   10.3387   12.0954   23.0468 N   0  0  0  0  0  0  0  0  0  0  0  0
    9.2268   11.6080   23.7372 C   0  0  0  0  0  0  0  0  0  0  0  0
    8.3660   12.4925   24.3802 C   0  0  0  0  0  0  0  0  0  0  0  0
    7.3538   11.9714   25.1462 C   0  0  0  0  0  0  0  0  0  0  0  0
    7.1797   10.6441   25.3182 N   0  0  0  0  0  0  0  0  0  0  0  0
    8.0178    9.8105   24.6521 C   0  0  0  0  0  0  0  0  0  0  0  0
    9.0234   10.2404   23.8232 C   0  0  0  0  0  0  0  0  0  0  0  0
    9.7822    9.3130   23.0713 C   0  0  0  0  0  0  0  0  0  0  0  0
   10.3805    8.6402   22.3500 N   0  0  0  0  0  0  0  0  0  0  0  0
   11.4982   13.9460   21.1208 C   0  0  0  0  0  0  0  0  0  0  0  0
  2  1  1  6
  2  3  1  0
  3  4  1  0
  4  5  1  0
  5  6  1  0
  6  7  1  1
  7  8  2  0
  7  9  1  0
  9 10  1  0
 10 11  2  0
 11 12  1  0
 12 13  2  0
 13 14  1  0
 14 15  2  0
 15 16  1  0
 16 17  3  0
  6 18  1  0
 18  2  1  0
 15 10  1  0
M  END
$$$$

     RDKit          3D

 18 19  0  0  0  0  0  0  0  0999 V2000
   14.2184   13.8519   24.6712 C   0  0  0  0  0  0  0  0  0  0  0  0
   13.0842   14.2796   23.7806 C   0  0  1  0  0  0  0  0  0  0  0  0
   13.3801   15.4444   22.8808 C   0  0  0  0  0  0  0  0  0  0  0  0
   12.0954   16.0201   22.3735 C   0  0  0  0  0  0  0  0  0  0  0  0
   11.4431   14.9894   21.4956 C   0  0  0  0  0  0  0  0  0  0  0  0
   11.4655   13.5911   22.0629 C   0  0  2  0  0  0  0  0  0  0  0  0
   10.3667   13.3767   23.0357 C   0  0  0  0  0  0  0  0  0  0  0  0
    9.9968   14.1995   23.8693 O   0  0  0  0  0  0  0  0  0  0  0  0
    9.9696   12.0648   22.9745 N   0  0  0  0  0  0  0  0  0  0  0  0
    8.9912   11.5159   23.7905 C   0  0  0  0  0  0  0  0  0  0  0  0
    8.1185   12.3478   24.4851 C   0  0  0  0  0  0  0  0  0  0  0  0
    7.1928   11.7732   25.3104 C   0  0  0  0  0  0  0  0  0  0  0  0
    7.1084   10.4388   25.4725 N   0  0  0  0  0  0  0  0  0  0  0  0
    7.9647    9.6562   24.7652 C   0  0  0  0  0  0  0  0  0  0  0  0
    8.9083   10.1400   23.9001 C   0  0  0  0  0  0  0  0  0  0  0  0
    9.7082    9.2694   23.1179 C   0  0  0  0  0  0  0  0  0  0  0  0
   10.3478    8.6628   22.3724 N   0  0  0  0  0  0  0  0  0  0  0  0
   12.7042   13.1915   22.8271 C   0  0  0  0  0  0  0  0  0  0  0  0
  2  1  1  6
  2  3  1  0
  3  4  1  0
  4  5  1  0
  5  6  1  0
  6  7  1  1
  7  8  2  0
  7  9  1  0
  9 10  1  0
 10 11  2  0
 11 12  1  0
 12 13  2  0
 13 14  1  0
 14 15  2  0
 15 16  1  0
 16 17  3  0
  6 18  1  0
 18  2  1  0
 15 10  1  0
M  END
$$$$

     RDKit          3D

 18 19  0  0  0  0  0  0  0  0999 V2000
    1.8249   12.0144   28.2992 C   0  0  0  0  0  0  0  0  0  0  0  0
    3.3212   11.8493   28.2170 C   0  0  2  0  0  0  0  0  0  0  0  0
    3.9758   12.4723   29.4257 C   0  0  0  0  0  0  0  0  0  0  0  0
    5.4726   12.6559   29.2816 C   0  0  0  0  0  0  0  0  0  0  0  0
    6.0579   11.9720   28.0651 C   0  0  0  0  0  0  0  0  0  0  0  0
    5.3233   12.3025   26.7773 C   0  0  2  0  0  0  0  0  0  0  0  0
    5.9390   13.5211   26.1350 C   0  0  0  0  0  0  0  0  0  0  0  0
    5.5014   14.6478   26.3723 O   0  0  0  0  0  0  0  0  0  0  0  0
    7.0594   13.3331   25.3567 N   0  0  0  0  0  0  0  0  0  0  0  0
    7.6932   12.1652   24.9067 C   0  0  0  0  0  0  0  0  0  0  0  0
    7.2251   10.9059   25.2450 C   0  0  0  0  0  0  0  0  0  0  0  0
    7.9074    9.8044   24.7713 C   0  0  0  0  0  0  0  0  0  0  0  0
    8.9689    9.8732   23.9539 N   0  0  0  0  0  0  0  0  0  0  0  0
    9.4182   11.0981   23.6374 C   0  0  0  0  0  0  0  0  0  0  0  0
    8.8362   12.2575   24.1101 C   0  0  0  0  0  0  0  0  0  0  0  0
    9.5435   13.4611   23.8826 C   0  0  0  0  0  0  0  0  0  0  0  0
   10.2067   14.4038   23.7872 N   0  0  0  0  0  0  0  0  0  0  0  0
    3.8355   12.5074   26.9632 C   0  0  0  0  0  0  0  0  0  0  0  0
  2  1  1  1
  2  3  1  0
  3  4  1  0
  4  5  1  0
  5  6  1  0
  6  7  1  1
  7  8  2  0
  7  9  1  0
  9 10  1  0
 10 11  2  0
 11 12  1  0
 12 13  2  0
 13 14  1  0
 14 15  2  0
 15 16  1  0
 16 17  3  0
  6 18  1  0
 18  2  1  0
 15 10  1  0
M  END
$$$$

     RDKit          3D

 18 19  0  0  0  0  0  0  0  0999 V2000
    1.8456   12.9200   28.1811 C   0  0  0  0  0  0  0  0  0  0  0  0
    3.3422   13.0936   28.1099 C   0  0  1  0  0  0  0  0  0  0  0  0
    3.9834   12.5554   29.3644 C   0  0  0  0  0  0  0  0  0  0  0  0
    5.4855   12.7149   29.2960 C   0  0  0  0  0  0  0  0  0  0  0  0
    6.0610   11.9691   28.1121 C   0  0  0  0  0  0  0  0  0  0  0  0
    5.3672   12.2950   26.8057 C   0  0  2  0  0  0  0  0  0  0  0  0
    5.9542   13.5189   26.1508 C   0  0  0  0  0  0  0  0  0  0  0  0
    5.5000   14.6396   26.3818 O   0  0  0  0  0  0  0  0  0  0  0  0
    7.0708   13.3379   25.3641 N   0  0  0  0  0  0  0  0  0  0  0  0
    7.7033   12.1702   24.9095 C   0  0  0  0  0  0  0  0  0  0  0  0
    7.2343   10.9100   25.2444 C   0  0  0  0  0  0  0  0  0  0  0  0
    7.9135    9.8085   24.7663 C   0  0  0  0  0  0  0  0  0  0  0  0
    8.9734    9.8784   23.9470 N   0  0  0  0  0  0  0  0  0  0  0  0
    9.4234   11.1038   23.6328 C   0  0  0  0  0  0  0  0  0  0  0  0
    8.8441   12.2628   24.1100 C   0  0  0  0  0  0  0  0  0  0  0  0
    9.5530   13.4658   23.8847 C   0  0  0  0  0  0  0  0  0  0  0  0
   10.2178   14.4076   23.7914 N   0  0  0  0  0  0  0  0  0  0  0  0
    3.8635   12.3586   26.9028 C   0  0  0  0  0  0  0  0  0  0  0  0
  2  1  1  1
  2  3  1  0
  3  4  1  0
  4  5  1  0
  5  6  1  0
  6  7  1  1
  7  8  2  0
  7  9  1  0
  9 10  1  0
 10 11  2  0
 11 12  1  0
 12 13  2  0
 13 14  1  0
 14 15  2  0
 15 16  1  0
 16 17  3  0
  6 18  1  0
 18  2  1  0
 15 10  1  0
M  END
$$$$

     RDKit          3D

 18 19  0  0  0  0  0  0  0  0999 V2000
   10.1199   15.5411   19.8321 C   0  0  0  0  0  0  0  0  0  0  0  0
   10.7548   15.2473   21.1666 C   0  0  2  0  0  0  0  0  0  0  0  0
   11.7469   16.3049   21.5809 C   0  0  0  0  0  0  0  0  0  0  0  0
   12.2272   16.0405   22.9767 C   0  0  0  0  0  0  0  0  0  0  0  0
   12.9379   14.7160   23.0230 C   0  0  0  0  0  0  0  0  0  0  0  0
   12.0958   13.5952   22.4665 C   0  0  1  0  0  0  0  0  0  0  0  0
   11.0257   13.2200   23.4492 C   0  0  0  0  0  0  0  0  0  0  0  0
   10.8195   13.8215   24.5051 O   0  0  0  0  0  0  0  0  0  0  0  0
   10.3387   12.0954   23.0468 N   0  0  0  0  0  0  0  0  0  0  0  0
    9.2268   11.6080   23.7372 C   0  0  0  0  0  0  0  0  0  0  0  0
    8.3660   12.4925   24.3802 C   0  0  0  0  0  0  0  0  0  0  0  0
    7.3538   11.9714   25.1462 C   0  0  0  0  0  0  0  0  0  0  0  0
    7.1797   10.6441   25.3182 N   0  0  0  0  0  0  0  0  0  0  0  0
    8.0178    9.8105   24.6521 C   0  0  0  0  0  0  0  0  0  0  0  0
    9.0234   10.2404   23.8232 C   0  0  0  0  0  0  0  0  0  0  0  0
    9.7822    9.3130   23.0713 C   0  0  0  0  0  0  0  0  0  0  0  0
   10.3805    8.6402   22.3500 N   0  0  0  0  0  0  0  0  0  0  0  0
   11.4982   13.9460   21.1208 C   0  0  0  0  0  0  0  0  0  0  0  0
  2  1  1  6
  2  3  1  0
  3  4  1  0
  4  5  1  0
  5  6  1  0
  6  7  1  1
  7  8  2  0
  7  9  1  0
  9 10  1  0
 10 11  2  0
 11 12  1  0
 12 13  2  0
 13 14  1  0
 14 15  2  0
 15 16  1  0
 16 17  3  0
  6 18  1  0
 18  2  1  0
 15 10  1  0
M  END
$$$$

     RDKit          3D

 18 19  0  0  0  0  0  0  0  0999 V2000
   14.2184   13.8519   24.6712 C   0  0  0  0  0  0  0  0  0  0  0  0
   13.0842   14.2796   23.7806 C   0  0  1  0  0  0  0  0  0  0  0  0
   13.3801   15.4444   22.8808 C   0  0  0  0  0  0  0  0  0  0  0  0
   12.0954   16.0201   22.3735 C   0  0  0  0  0  0  0  0  0  0  0  0
   11.4431   14.9894   21.4956 C   0  0  0  0  0  0  0  0  0  0  0  0
   11.4655   13.5911   22.0629 C   0  0  2  0  0  0  0  0  0  0  0  0
   10.3667   13.3767   23.0357 C   0  0  0  0  0  0  0  0  0  0  0  0
    9.9968   14.1995   23.8693 O   0  0  0  0  0  0  0  0  0  0  0  0
    9.9696   12.0648   22.9745 N   0  0  0  0  0  0  0  0  0  0  0  0
    8.9912   11.5159   23.7905 C   0  0  0  0  0  0  0  0  0  0  0  0
    8.1185   12.3478   24.4851 C   0  0  0  0  0  0  0  0  0  0  0  0
    7.1928   11.7732   25.3104 C   0  0  0  0  0  0  0  0  0  0  0  0
    7.1084   10.4388   25.4725 N   0  0  0  0  0  0  0  0  0  0  0  0
    7.9647    9.6562   24.7652 C   0  0  0  0  0  0  0  0  0  0  0  0
    8.9083   10.1400   23.9001 C   0  0  0  0  0  0  0  0  0  0  0  0
    9.7082    9.2694   23.1179 C   0  0  0  0  0  0  0  0  0  0  0  0
   10.3478    8.6628   22.3724 N   0  0  0  0  0  0  0  0  0  0  0  0
   12.7042   13.1915   22.8271 C   0  0  0  0  0  0  0  0  0  0  0  0
  2  1  1  6
  2  3  1  0
  3  4  1  0
  4  5  1  0
  5  6  1  0
  6  7  1  1
  7  8  2  0
  7  9  1  0
  9 10  1  0
 10 11  2  0
 11 12  1  0
 12 13  2  0
 13 14  1  0
 14 15  2  0
 15 16  1  0
 16 17  3  0
  6 18  1  0
 18  2  1  0
 15 10  1  0
M  END
$$$$

     RDKit          3D

 23 23  0  0  0  0  0  0  0  0999 V2000
   11.8849    7.8589   22.7822 C   0  0  0  0  0  0  0  0  0  0  0  0
   11.3152    8.8186   23.6939 C   0  0  0  0  0  0  0  0  0  0  0  0
    9.9753    8.2350   23.9043 C   0  0  0  0  0  0  0  0  0  0  0  0
    8.9570    8.6431   22.9507 C   0  0  2  0  0  0  0  0  0  0  0  0
    9.1270    7.9760   21.6969 C   0  0  0  0  0  0  0  0  0  0  0  0
    9.0921    7.5159   20.6344 N   0  0  0  0  0  0  0  0  0  0  0  0
    9.2348   10.0601   22.8881 C   0  0  0  0  0  0  0  0  0  0  0  0
    9.9557   10.6402   22.1087 O   0  0  0  0  0  0  0  0  0  0  0  0
    8.6351   10.7554   23.9219 N   0  0  0  0  0  0  0  0  0  0  0  0
    7.7748   10.1221   24.7593 N   0  0  0  0  0  0  0  0  0  0  0  0
    7.1112   11.1003   25.3746 C   0  0  0  0  0  0  0  0  0  0  0  0
    5.9263   10.8678   26.0731 N   0  0  0  0  0  0  0  0  0  0  0  0
    5.8928   10.1840   27.2754 C   0  0  0  0  0  0  0  0  0  0  0  0
    6.8289   10.1762   28.0723 O   0  0  0  0  0  0  0  0  0  0  0  0
    4.5439    9.6441   27.7113 C   0  0  2  0  0  0  0  0  0  0  0  0
    4.6596    8.9529   29.0531 C   0  0  0  0  0  0  0  0  0  0  0  0
    4.0369    8.6308   26.8045 N   0  0  0  0  0  0  0  0  0  0  0  0
    7.6747   12.3609   25.0245 C   0  0  0  0  0  0  0  0  0  0  0  0
    8.7337   12.0873   24.1800 C   0  0  0  0  0  0  0  0  0  0  0  0
    9.7801   12.8911   23.5086 C   0  0  0  0  0  0  0  0  0  0  0  0
    9.9795   14.0528   24.1775 F   0  0  0  0  0  0  0  0  0  0  0  0
   10.9858   12.2765   23.4957 F   0  0  0  0  0  0  0  0  0  0  0  0
    9.4127   13.2213   22.2522 F   0  0  0  0  0  0  0  0  0  0  0  0
  1  2  1  0
  2  3  1  0
  4  3  1  1
  4  5  1  0
  5  6  3  0
  4  7  1  0
  7  8  2  0
  7  9  1  0
  9 10  1  0
 10 11  2  0
 11 12  1  0
 12 13  1  0
 13 14  2  0
 13 15  1  0
 15 16  1  1
 15 17  1  0
 11 18  1  0
 18 19  2  0
 19 20  1  0
 20 21  1  0
 20 22  1  0
 20 23  1  0
 19  9  1  0
M  END
$$$$

     RDKit          3D

 23 23  0  0  0  0  0  0  0  0999 V2000
   11.8849    7.8589   22.7822 C   0  0  0  0  0  0  0  0  0  0  0  0
   11.3152    8.8186   23.6939 C   0  0  0  0  0  0  0  0  0  0  0  0
    9.9753    8.2350   23.9043 C   0  0  0  0  0  0  0  0  0  0  0  0
    8.9570    8.6431   22.9507 C   0  0  2  0  0  0  0  0  0  0  0  0
    9.1270    7.9760   21.6969 C   0  0  0  0  0  0  0  0  0  0  0  0
    9.0921    7.5159   20.6344 N   0  0  0  0  0  0  0  0  0  0  0  0
    9.2348   10.0601   22.8881 C   0  0  0  0  0  0  0  0  0  0  0  0
    9.9557   10.6402   22.1087 O   0  0  0  0  0  0  0  0  0  0  0  0
    8.6351   10.7554   23.9219 N   0  0  0  0  0  0  0  0  0  0  0  0
    7.7748   10.1221   24.7593 N   0  0  0  0  0  0  0  0  0  0  0  0
    7.1112   11.1003   25.3746 C   0  0  0  0  0  0  0  0  0  0  0  0
    5.9263   10.8678   26.0731 N   0  0  0  0  0  0  0  0  0  0  0  0
    5.8928   10.1840   27.2754 C   0  0  0  0  0  0  0  0  0  0  0  0
    6.8289   10.1762   28.0723 O   0  0  0  0  0  0  0  0  0  0  0  0
    4.5439    9.6441   27.7113 C   0  0  2  0  0  0  0  0  0  0  0  0
    4.6596    8.9529   29.0531 C   0  0  0  0  0  0  0  0  0  0  0  0
    4.0369    8.6308   26.8045 N   0  0  0  0  0  0  0  0  0  0  0  0
    7.6747   12.3609   25.0245 C   0  0  0  0  0  0  0  0  0  0  0  0
    8.7337   12.0873   24.1800 C   0  0  0  0  0  0  0  0  0  0  0  0
    9.7801   12.8911   23.5086 C   0  0  0  0  0  0  0  0  0  0  0  0
    9.9795   14.0528   24.1775 F   0  0  0  0  0  0  0  0  0  0  0  0
   10.9858   12.2765   23.4957 F   0  0  0  0  0  0  0  0  0  0  0  0
    9.4127   13.2213   22.2522 F   0  0  0  0  0  0  0  0  0  0  0  0
  1  2  1  0
  2  3  1  0
  4  3  1  1
  4  5  1  0
  5  6  3  0
  4  7  1  0
  7  8  2  0
  7  9  1  0
  9 10  1  0
 10 11  2  0
 11 12  1  0
 12 13  1  0
 13 14  2  0
 13 15  1  0
 15 16  1  1
 15 17  1  0
 11 18  1  0
 18 19  2  0
 19 20  1  0
 20 21  1  0
 20 22  1  0
 20 23  1  0
 19  9  1  0
M  END
$$$$

     RDKit          3D

 23 23  0  0  0  0  0  0  0  0999 V2000
   11.8849    7.8589   22.7822 C   0  0  0  0  0  0  0  0  0  0  0  0
   11.3152    8.8186   23.6939 C   0  0  0  0  0  0  0  0  0  0  0  0
    9.9753    8.2350   23.9043 C   0  0  0  0  0  0  0  0  0  0  0  0
    8.9570    8.6431   22.9507 C   0  0  2  0  0  0  0  0  0  0  0  0
    9.1270    7.9760   21.6969 C   0  0  0  0  0  0  0  0  0  0  0  0
    9.0921    7.5159   20.6344 N   0  0  0  0  0  0  0  0  0  0  0  0
    9.2348   10.0601   22.8881 C   0  0  0  0  0  0  0  0  0  0  0  0
    9.9557   10.6402   22.1087 O   0  0  0  0  0  0  0  0  0  0  0  0
    8.6351   10.7554   23.9219 N   0  0  0  0  0  0  0  0  0  0  0  0
    7.7748   10.1221   24.7593 N   0  0  0  0  0  0  0  0  0  0  0  0
    7.1112   11.1003   25.3746 C   0  0  0  0  0  0  0  0  0  0  0  0
    5.9263   10.8678   26.0731 N   0  0  0  0  0  0  0  0  0  0  0  0
    5.8928   10.1840   27.2754 C   0  0  0  0  0  0  0  0  0  0  0  0
    6.8289   10.1762   28.0723 O   0  0  0  0  0  0  0  0  0  0  0  0
    4.5439    9.6441   27.7113 C   0  0  2  0  0  0  0  0  0  0  0  0
    4.6596    8.9529   29.0531 C   0  0  0  0  0  0  0  0  0  0  0  0
    4.0369    8.6308   26.8045 N   0  0  0  0  0  0  0  0  0  0  0  0
    7.6747   12.3609   25.0245 C   0  0  0  0  0  0  0  0  0  0  0  0
    8.7337   12.0873   24.1800 C   0  0  0  0  0  0  0  0  0  0  0  0
    9.7801   12.8911   23.5086 C   0  0  0  0  0  0  0  0  0  0  0  0
    9.9795   14.0528   24.1775 F   0  0  0  0  0  0  0  0  0  0  0  0
   10.9858   12.2765   23.4957 F   0  0  0  0  0  0  0  0  0  0  0  0
    9.4127   13.2213   22.2522 F   0  0  0  0  0  0  0  0  0  0  0  0
  1  2  1  0
  2  3  1  0
  4  3  1  1
  4  5  1  0
  5  6  3  0
  4  7  1  0
  7  8  2  0
  7  9  1  0
  9 10  1  0
 10 11  2  0
 11 12  1  0
 12 13  1  0
 13 14  2  0
 13 15  1  0
 15 16  1  1
 15 17  1  0
 11 18  1  0
 18 19  2  0
 19 20  1  0
 20 21  1  0
 20 22  1  0
 20 23  1  0
 19  9  1  0
M  END
$$$$

     RDKit          3D

 23 23  0  0  0  0  0  0  0  0999 V2000
   11.8849    7.8589   22.7822 C   0  0  0  0  0  0  0  0  0  0  0  0
   11.3152    8.8186   23.6939 C   0  0  0  0  0  0  0  0  0  0  0  0
    9.9753    8.2350   23.9043 C   0  0  0  0  0  0  0  0  0  0  0  0
    8.9570    8.6431   22.9507 C   0  0  2  0  0  0  0  0  0  0  0  0
    9.1270    7.9760   21.6969 C   0  0  0  0  0  0  0  0  0  0  0  0
    9.0921    7.5159   20.6344 N   0  0  0  0  0  0  0  0  0  0  0  0
    9.2348   10.0601   22.8881 C   0  0  0  0  0  0  0  0  0  0  0  0
    9.9557   10.6402   22.1087 O   0  0  0  0  0  0  0  0  0  0  0  0
    8.6351   10.7554   23.9219 N   0  0  0  0  0  0  0  0  0  0  0  0
    7.7748   10.1221   24.7593 N   0  0  0  0  0  0  0  0  0  0  0  0
    7.1112   11.1003   25.3746 C   0  0  0  0  0  0  0  0  0  0  0  0
    5.9263   10.8678   26.0731 N   0  0  0  0  0  0  0  0  0  0  0  0
    5.8928   10.1840   27.2754 C   0  0  0  0  0  0  0  0  0  0  0  0
    6.8289   10.1762   28.0723 O   0  0  0  0  0  0  0  0  0  0  0  0
    4.5439    9.6441   27.7113 C   0  0  2  0  0  0  0  0  0  0  0  0
    4.6596    8.9529   29.0531 C   0  0  0  0  0  0  0  0  0  0  0  0
    4.0369    8.6308   26.8045 N   0  0  0  0  0  0  0  0  0  0  0  0
    7.6747   12.3609   25.0245 C   0  0  0  0  0  0  0  0  0  0  0  0
    8.7337   12.0873   24.1800 C   0  0  0  0  0  0  0  0  0  0  0  0
    9.7801   12.8911   23.5086 C   0  0  0  0  0  0  0  0  0  0  0  0
    9.9795   14.0528   24.1775 F   0  0  0  0  0  0  0  0  0  0  0  0
   10.9858   12.2765   23.4957 F   0  0  0  0  0  0  0  0  0  0  0  0
    9.4127   13.2213   22.2522 F   0  0  0  0  0  0  0  0  0  0  0  0
  1  2  1  0
  2  3  1  0
  4  3  1  1
  4  5  1  0
  5  6  3  0
  4  7  1  0
  7  8  2  0
  7  9  1  0
  9 10  1  0
 10 11  2  0
 11 12  1  0
 12 13  1  0
 13 14  2  0
 13 15  1  0
 15 16  1  1
 15 17  1  0
 11 18  1  0
 18 19  2  0
 19 20  1  0
 20 21  1  0
 20 22  1  0
 20 23  1  0
 19  9  1  0
M  END
$$$$

     RDKit          3D

 27 28  0  0  0  0  0  0  0  0999 V2000
    8.9455    8.3422   22.5233 C   0  0  0  0  0  0  0  0  0  0  0  0
    9.6648    9.4480   23.1883 C   0  0  0  0  0  0  0  0  0  0  0  0
   10.1718   10.2803   22.0685 C   0  0  0  0  0  0  0  0  0  0  0  0
   10.9386    8.8756   23.7090 C   0  0  0  0  0  0  0  0  0  0  0  0
    8.8125   10.1978   24.1016 N   0  0  0  0  0  0  0  0  0  0  0  0
    7.8270    9.5982   24.8377 N   0  0  0  0  0  0  0  0  0  0  0  0
    7.2287   10.5840   25.5351 C   0  0  0  0  0  0  0  0  0  0  0  0
    6.1177   10.3929   26.5412 C   0  0  0  0  0  0  0  0  0  0  0  0
    5.0189    9.3806   26.3262 C   0  0  0  0  0  0  0  0  0  0  0  0
    4.3804    9.1076   27.6791 C   0  0  0  0  0  0  0  0  0  0  0  0
    5.5104    9.2961   28.6611 C   0  0  0  0  0  0  0  0  0  0  0  0
    6.5063   10.2356   27.9928 C   0  0  0  0  0  0  0  0  0  0  0  0
    7.8069   11.8346   25.1835 C   0  0  0  0  0  0  0  0  0  0  0  0
    8.8134   11.5626   24.2871 C   0  0  0  0  0  0  0  0  0  0  0  0
    9.7564   12.3495   23.6813 N   0  0  0  0  0  0  0  0  0  0  0  0
   10.2162   13.5504   24.1637 C   0  0  0  0  0  0  0  0  0  0  0  0
    9.7441   14.2099   25.0811 O   0  0  0  0  0  0  0  0  0  0  0  0
   11.3923   14.0078   23.3928 C   0  0  1  0  0  0  0  0  0  0  0  0
   11.8993   15.3643   23.6978 C   0  0  0  0  0  0  0  0  0  0  0  0
   12.0571   16.2700   22.2021 P   0  0  0  0  0  0  0  0  0  0  0  0
   13.5497   15.8035   21.4087 C   0  0  0  0  0  0  0  0  0  0  0  0
   10.7829   15.6286   21.1322 C   0  0  0  0  0  0  0  0  0  0  0  0
   11.9177   17.7366   22.4672 O   0  0  0  0  0  0  0  0  0  0  0  0
   12.5166   13.0753   23.2819 C   0  0  0  0  0  0  0  0  0  0  0  0
   13.5362   13.3469   24.1136 F   0  0  0  0  0  0  0  0  0  0  0  0
   12.1310   11.8261   23.5432 F   0  0  0  0  0  0  0  0  0  0  0  0
   12.9642   13.1474   22.0210 F   0  0  0  0  0  0  0  0  0  0  0  0
  1  2  1  0
  2  3  1  0
  2  4  1  0
  2  5  1  0
  5  6  1  0
  6  7  2  0
  7  8  1  0
  8  9  1  0
  9 10  1  0
 10 11  1  0
 11 12  1  0
  7 13  1  0
 13 14  2  0
 14 15  1  0
 15 16  1  0
 16 17  2  0
 16 18  1  0
 18 19  1  1
 19 20  1  0
 20 21  1  0
 20 22  1  0
 20 23  2  0
 18 24  1  0
 24 25  1  0
 24 26  1  0
 24 27  1  0
 14  5  1  0
 12  8  1  0
M  END
$$$$

     RDKit          3D

 24 24  0  0  0  0  0  0  0  0999 V2000
    5.2467   12.3183   25.8848 C   0  0  0  0  0  0  0  0  0  0  0  0
    6.3290   11.3616   26.3200 C   0  0  0  0  0  0  0  0  0  0  0  0
    5.6638   10.0770   26.7608 C   0  0  0  0  0  0  0  0  0  0  0  0
    6.9518   11.9834   27.5491 C   0  0  0  0  0  0  0  0  0  0  0  0
    7.3634   11.1682   25.2661 C   0  0  0  0  0  0  0  0  0  0  0  0
    8.1111   12.1528   24.6026 C   0  0  0  0  0  0  0  0  0  0  0  0
    9.0743   11.4886   23.8671 C   0  0  0  0  0  0  0  0  0  0  0  0
   10.1417   12.0606   23.1790 N   0  0  0  0  0  0  0  0  0  0  0  0
   10.5990   13.2980   23.6444 C   0  0  0  0  0  0  0  0  0  0  0  0
   10.4143   13.6932   24.8062 O   0  0  0  0  0  0  0  0  0  0  0  0
   11.3368   14.1893   22.6816 C   0  0  1  0  0  0  0  0  0  0  0  0
   10.5507   14.4519   21.5401 O   0  0  0  0  0  0  0  0  0  0  0  0
   11.6803   15.4514   23.4450 C   0  0  0  0  0  0  0  0  0  0  0  0
   11.9830   16.5584   22.6205 O   0  0  0  0  0  0  0  0  0  0  0  0
   12.6614   13.6249   22.3820 C   0  0  0  0  0  0  0  0  0  0  0  0
   13.4644   14.5990   21.9238 F   0  0  0  0  0  0  0  0  0  0  0  0
   13.2396   13.1196   23.5084 F   0  0  0  0  0  0  0  0  0  0  0  0
   12.6025   12.6632   21.4774 F   0  0  0  0  0  0  0  0  0  0  0  0
    8.7656   10.1589   24.0106 N   0  0  0  0  0  0  0  0  0  0  0  0
    9.2652    8.9171   23.4757 C   0  0  0  0  0  0  0  0  0  0  0  0
   10.4774    8.9954   22.6836 C   0  0  0  0  0  0  0  0  0  0  0  0
   10.4968    9.4052   21.5391 O   0  0  0  0  0  0  0  0  0  0  0  0
   11.5272    8.5184   23.3708 O   0  0  0  0  0  0  0  0  0  0  0  0
    7.7691    9.9559   24.8996 N   0  0  0  0  0  0  0  0  0  0  0  0
  1  2  1  0
  2  3  1  0
  2  4  1  0
  2  5  1  0
  5  6  1  0
  6  7  2  0
  7  8  1  0
  8  9  1  0
  9 10  2  0
  9 11  1  0
 11 12  1  6
 11 13  1  0
 13 14  1  0
 11 15  1  0
 15 16  1  0
 15 17  1  0
 15 18  1  0
  7 19  1  0
 19 20  1  0
 20 21  1  0
 21 22  2  0
 21 23  1  0
 19 24  1  0
 24  5  2  0
M  END
$$$$

     RDKit          3D

 25 25  0  0  0  0  0  0  0  0999 V2000
    6.7278   12.3024   27.3835 C   0  0  0  0  0  0  0  0  0  0  0  0
    6.3244   11.2896   26.3426 C   0  0  0  0  0  0  0  0  0  0  0  0
    5.9149   10.0321   27.0735 C   0  0  0  0  0  0  0  0  0  0  0  0
    5.0905   11.8629   25.7158 C   0  0  0  0  0  0  0  0  0  0  0  0
    7.3936   11.0806   25.3291 C   0  0  0  0  0  0  0  0  0  0  0  0
    8.1575   12.0622   24.6643 C   0  0  0  0  0  0  0  0  0  0  0  0
    9.0157   11.3712   23.8406 C   0  0  0  0  0  0  0  0  0  0  0  0
   10.0091   11.8215   23.0054 N   0  0  0  0  0  0  0  0  0  0  0  0
   10.5273   13.0988   23.1378 C   0  0  0  0  0  0  0  0  0  0  0  0
   10.2364   13.9105   24.0143 O   0  0  0  0  0  0  0  0  0  0  0  0
   11.5681   13.3450   22.1080 C   0  0  2  0  0  0  0  0  0  0  0  0
   12.7860   13.8759   22.8011 C   0  0  0  0  0  0  0  0  0  0  0  0
   13.0906   15.3003   22.4907 C   0  0  0  0  0  0  0  0  0  0  0  0
   12.2184   16.1452   23.3502 C   0  0  0  0  0  0  0  0  0  0  0  0
   12.0342   17.3444   22.5684 N   0  0  0  0  0  0  0  0  0  0  0  0
   10.9992   14.1216   20.9591 C   0  0  0  0  0  0  0  0  0  0  0  0
    9.8723   13.5535   20.4827 F   0  0  0  0  0  0  0  0  0  0  0  0
   11.8733   14.2451   19.9459 F   0  0  0  0  0  0  0  0  0  0  0  0
   10.6103   15.3550   21.3151 F   0  0  0  0  0  0  0  0  0  0  0  0
    8.7161   10.0512   24.0240 N   0  0  0  0  0  0  0  0  0  0  0  0
    9.1694    8.8639   23.3394 C   0  0  0  0  0  0  0  0  0  0  0  0
   10.5667    8.9419   22.9086 C   0  0  0  0  0  0  0  0  0  0  0  0
   11.5528    8.8308   23.6082 O   0  0  0  0  0  0  0  0  0  0  0  0
   10.5818    9.2196   21.5916 O   0  0  0  0  0  0  0  0  0  0  0  0
    7.7345    9.8572   24.9207 N   0  0  0  0  0  0  0  0  0  0  0  0
  1  2  1  0
  2  3  1  0
  2  4  1  0
  2  5  1  0
  5  6  1  0
  6  7  2  0
  7  8  1  0
  8  9  1  0
  9 10  2  0
  9 11  1  0
 11 12  1  1
 12 13  1  0
 13 14  1  0
 14 15  1  0
 11 16  1  0
 16 17  1  0
 16 18  1  0
 16 19  1  0
  7 20  1  0
 20 21  1  0
 21 22  1  0
 22 23  2  0
 22 24  1  0
 20 25  1  0
 25  5  2  0
M  END
$$$$

     RDKit          3D

 25 25  0  0  0  0  0  0  0  0999 V2000
    5.3972   12.1781   25.9880 C   0  0  0  0  0  0  0  0  0  0  0  0
    6.2371   10.9313   26.1603 C   0  0  0  0  0  0  0  0  0  0  0  0
    6.5965   10.8789   27.6175 C   0  0  0  0  0  0  0  0  0  0  0  0
    5.3562    9.7341   25.9736 C   0  0  0  0  0  0  0  0  0  0  0  0
    7.4169   10.9122   25.2448 C   0  0  0  0  0  0  0  0  0  0  0  0
    8.0237   12.0087   24.5973 C   0  0  0  0  0  0  0  0  0  0  0  0
    9.0790   11.4885   23.8847 C   0  0  0  0  0  0  0  0  0  0  0  0
   10.0538   12.0865   23.1241 N   0  0  0  0  0  0  0  0  0  0  0  0
   10.2552   13.4424   23.2559 C   0  0  0  0  0  0  0  0  0  0  0  0
    9.6984   14.1502   24.0979 O   0  0  0  0  0  0  0  0  0  0  0  0
   11.2003   14.0020   22.2554 C   0  0  1  0  0  0  0  0  0  0  0  0
   11.2669   15.4983   22.2807 C   0  0  0  0  0  0  0  0  0  0  0  0
   12.1159   16.0926   23.3753 C   0  0  0  0  0  0  0  0  0  0  0  0
   11.7841   15.6505   24.7866 C   0  0  0  0  0  0  0  0  0  0  0  0
   12.7773   14.7507   25.3266 N   0  0  0  0  0  0  0  0  0  0  0  0
   12.5500   13.4129   22.3521 C   0  0  0  0  0  0  0  0  0  0  0  0
   13.4861   14.3741   22.3902 F   0  0  0  0  0  0  0  0  0  0  0  0
   12.7407   12.6393   23.4417 F   0  0  0  0  0  0  0  0  0  0  0  0
   12.7596   12.6930   21.2548 F   0  0  0  0  0  0  0  0  0  0  0  0
    9.0495   10.1507   24.1104 N   0  0  0  0  0  0  0  0  0  0  0  0
   10.0346    9.1813   23.6699 C   0  0  0  0  0  0  0  0  0  0  0  0
    9.6480    8.7165   22.3367 C   0  0  0  0  0  0  0  0  0  0  0  0
   10.2503    8.9533   21.3096 O   0  0  0  0  0  0  0  0  0  0  0  0
    8.4593    8.1124   22.3770 O   0  0  0  0  0  0  0  0  0  0  0  0
    8.0415    9.7712   24.9223 N   0  0  0  0  0  0  0  0  0  0  0  0
  1  2  1  0
  2  3  1  0
  2  4  1  0
  2  5  1  0
  5  6  1  0
  6  7  2  0
  7  8  1  0
  8  9  1  0
  9 10  2  0
  9 11  1  0
 11 12  1  1
 12 13  1  0
 13 14  1  0
 14 15  1  0
 11 16  1  0
 16 17  1  0
 16 18  1  0
 16 19  1  0
  7 20  1  0
 20 21  1  0
 21 22  1  0
 22 23  2  0
 22 24  1  0
 20 25  1  0
 25  5  2  0
M  END
$$$$

     RDKit          3D

 24 24  0  0  0  0  0  0  0  0999 V2000
    4.9762    8.6865   28.6006 C   0  0  0  0  0  0  0  0  0  0  0  0
    4.9471    9.9853   27.8334 C   0  0  0  0  0  0  0  0  0  0  0  0
    6.0131    9.9917   26.8941 O   0  0  0  0  0  0  0  0  0  0  0  0
    6.1775   11.1907   26.2708 C   0  0  0  0  0  0  0  0  0  0  0  0
    5.4798   12.1699   26.5251 O   0  0  0  0  0  0  0  0  0  0  0  0
    7.2926   11.1904   25.3015 C   0  0  0  0  0  0  0  0  0  0  0  0
    7.9019   10.0524   24.9173 N   0  0  0  0  0  0  0  0  0  0  0  0
    8.8642   10.4362   24.0650 N   0  0  0  0  0  0  0  0  0  0  0  0
    9.7033    9.4196   23.4550 C   0  0  0  0  0  0  0  0  0  0  0  0
    8.9584   11.7929   23.9094 C   0  0  0  0  0  0  0  0  0  0  0  0
    9.9670   12.3540   23.1493 N   0  0  0  0  0  0  0  0  0  0  0  0
   10.5885   13.5736   23.4407 C   0  0  0  0  0  0  0  0  0  0  0  0
   10.4095   14.2074   24.4844 O   0  0  0  0  0  0  0  0  0  0  0  0
   11.6472   13.9771   22.4076 C   0  0  2  0  0  0  0  0  0  0  0  0
   12.6139   12.9088   22.5269 N   0  0  0  0  0  0  0  0  0  0  0  0
   12.5579   15.1364   22.7715 C   0  0  0  0  0  0  0  0  0  0  0  0
   11.8731   16.3808   23.2003 C   0  0  0  0  0  0  0  0  0  0  0  0
   13.4493   15.5439   21.6232 C   0  0  0  0  0  0  0  0  0  0  0  0
   11.0224   14.1897   21.0340 C   0  0  0  0  0  0  0  0  0  0  0  0
   11.8486   13.9380   20.0046 F   0  0  0  0  0  0  0  0  0  0  0  0
   10.6712   15.4840   20.8904 F   0  0  0  0  0  0  0  0  0  0  0  0
    9.8547   13.5417   20.8561 F   0  0  0  0  0  0  0  0  0  0  0  0
    7.8892   12.2892   24.6258 C   0  0  0  0  0  0  0  0  0  0  0  0
    7.2618   14.0514   24.7012 Br  0  0  0  0  0  0  0  0  0  0  0  0
  1  2  1  0
  2  3  1  0
  3  4  1  0
  4  5  2  0
  4  6  1  0
  6  7  2  0
  7  8  1  0
  8  9  1  0
  8 10  1  0
 10 11  1  0
 11 12  1  0
 12 13  2  0
 12 14  1  0
 14 15  1  6
 14 16  1  0
 16 17  1  0
 16 18  1  0
 14 19  1  0
 19 20  1  0
 19 21  1  0
 19 22  1  0
 10 23  2  0
 23 24  1  0
 23  6  1  0
M  END
$$$$

     RDKit          3D

 21 21  0  0  0  0  0  0  0  0999 V2000
    4.9097    8.7421   29.0660 C   0  0  0  0  0  0  0  0  0  0  0  0
    4.6449    9.4681   27.7702 C   0  0  2  0  0  0  0  0  0  0  0  0
    3.9692    8.5485   26.8775 N   0  0  0  0  0  0  0  0  0  0  0  0
    5.9196   10.0822   27.2217 C   0  0  0  0  0  0  0  0  0  0  0  0
    6.7302   10.5753   28.0078 O   0  0  0  0  0  0  0  0  0  0  0  0
    6.0346   10.1816   25.8576 N   0  0  0  0  0  0  0  0  0  0  0  0
    7.1970   10.5927   25.2195 C   0  0  0  0  0  0  0  0  0  0  0  0
    7.5811   11.9236   24.9151 C   0  0  0  0  0  0  0  0  0  0  0  0
    8.6729   11.8104   24.0808 C   0  0  0  0  0  0  0  0  0  0  0  0
    9.4908   12.7961   23.3443 C   0  0  0  0  0  0  0  0  0  0  0  0
    9.9846   12.3244   22.1917 F   0  0  0  0  0  0  0  0  0  0  0  0
   10.5071   13.2795   24.0920 F   0  0  0  0  0  0  0  0  0  0  0  0
    8.7209   13.8512   22.9788 F   0  0  0  0  0  0  0  0  0  0  0  0
    8.9228   10.4684   23.9730 N   0  0  0  0  0  0  0  0  0  0  0  0
   10.0374    9.8797   23.4104 C   0  0  0  0  0  0  0  0  0  0  0  0
   11.0134   10.5852   23.2593 O   0  0  0  0  0  0  0  0  0  0  0  0
    9.9068    8.4596   23.1228 C   0  0  2  0  0  0  0  0  0  0  0  0
   11.2852    7.9138   23.3277 C   0  0  0  0  0  0  0  0  0  0  0  0
    9.5961    8.2863   21.7307 C   0  0  0  0  0  0  0  0  0  0  0  0
    9.4853    8.0650   20.5978 N   0  0  0  0  0  0  0  0  0  0  0  0
    7.9796    9.7192   24.5787 N   0  0  0  0  0  0  0  0  0  0  0  0
  2  1  1  1
  2  3  1  0
  2  4  1  0
  4  5  2  0
  4  6  1  0
  6  7  1  0
  7  8  1  0
  8  9  2  0
  9 10  1  0
 10 11  1  0
 10 12  1  0
 10 13  1  0
  9 14  1  0
 14 15  1  0
 15 16  2  0
 15 17  1  0
 17 18  1  6
 17 19  1  0
 19 20  3  0
 14 21  1  0
 21  7  2  0
M  END
$$$$

     RDKit          3D

 21 21  0  0  0  0  0  0  0  0999 V2000
    4.9351    8.2255   28.4716 C   0  0  0  0  0  0  0  0  0  0  0  0
    4.7311    9.3036   27.4298 C   0  0  1  0  0  0  0  0  0  0  0  0
    3.5816   10.0590   27.9184 N   0  0  0  0  0  0  0  0  0  0  0  0
    5.9294   10.2264   27.3842 C   0  0  0  0  0  0  0  0  0  0  0  0
    6.7437   10.2729   28.3063 O   0  0  0  0  0  0  0  0  0  0  0  0
    5.9744   11.0894   26.2965 N   0  0  0  0  0  0  0  0  0  0  0  0
    7.1171   11.1506   25.5133 C   0  0  0  0  0  0  0  0  0  0  0  0
    7.7641   12.2856   24.9745 C   0  0  0  0  0  0  0  0  0  0  0  0
    8.8148   11.8076   24.2028 C   0  0  0  0  0  0  0  0  0  0  0  0
    9.8216   12.5424   23.4176 C   0  0  0  0  0  0  0  0  0  0  0  0
    9.3146   12.9052   22.2232 F   0  0  0  0  0  0  0  0  0  0  0  0
   10.9433   11.8279   23.2075 F   0  0  0  0  0  0  0  0  0  0  0  0
   10.2102   13.6718   24.0519 F   0  0  0  0  0  0  0  0  0  0  0  0
    8.6140   10.4474   24.1592 N   0  0  0  0  0  0  0  0  0  0  0  0
    9.0310    9.4578   23.2923 C   0  0  0  0  0  0  0  0  0  0  0  0
    8.2722    8.5446   23.0393 O   0  0  0  0  0  0  0  0  0  0  0  0
   10.3549    9.5924   22.7578 C   0  0  2  0  0  0  0  0  0  0  0  0
   10.2510    9.1070   21.3743 C   0  0  0  0  0  0  0  0  0  0  0  0
   11.0731    8.5400   23.3422 C   0  0  0  0  0  0  0  0  0  0  0  0
   11.6758    7.6229   23.6424 N   0  0  0  0  0  0  0  0  0  0  0  0
    7.6966   10.0514   25.0684 N   0  0  0  0  0  0  0  0  0  0  0  0
  2  1  1  1
  2  3  1  0
  2  4  1  0
  4  5  2  0
  4  6  1  0
  6  7  1  0
  7  8  1  0
  8  9  2  0
  9 10  1  0
 10 11  1  0
 10 12  1  0
 10 13  1  0
  9 14  1  0
 14 15  1  0
 15 16  2  0
 15 17  1  0
 17 18  1  6
 17 19  1  0
 19 20  3  0
 14 21  1  0
 21  7  2  0
M  END
$$$$

     RDKit          3D

 21 21  0  0  0  0  0  0  0  0999 V2000
    4.9097    8.7421   29.0660 C   0  0  0  0  0  0  0  0  0  0  0  0
    4.6449    9.4681   27.7702 C   0  0  2  0  0  0  0  0  0  0  0  0
    3.9692    8.5485   26.8775 N   0  0  0  0  0  0  0  0  0  0  0  0
    5.9196   10.0822   27.2217 C   0  0  0  0  0  0  0  0  0  0  0  0
    6.7302   10.5753   28.0078 O   0  0  0  0  0  0  0  0  0  0  0  0
    6.0346   10.1816   25.8576 N   0  0  0  0  0  0  0  0  0  0  0  0
    7.1970   10.5927   25.2195 C   0  0  0  0  0  0  0  0  0  0  0  0
    7.5811   11.9236   24.9151 C   0  0  0  0  0  0  0  0  0  0  0  0
    8.6729   11.8104   24.0808 C   0  0  0  0  0  0  0  0  0  0  0  0
    9.4908   12.7961   23.3443 C   0  0  0  0  0  0  0  0  0  0  0  0
    9.9846   12.3244   22.1917 F   0  0  0  0  0  0  0  0  0  0  0  0
   10.5071   13.2795   24.0920 F   0  0  0  0  0  0  0  0  0  0  0  0
    8.7209   13.8512   22.9788 F   0  0  0  0  0  0  0  0  0  0  0  0
    8.9228   10.4684   23.9730 N   0  0  0  0  0  0  0  0  0  0  0  0
   10.0374    9.8797   23.4104 C   0  0  0  0  0  0  0  0  0  0  0  0
   11.0134   10.5852   23.2593 O   0  0  0  0  0  0  0  0  0  0  0  0
    9.9068    8.4596   23.1228 C   0  0  2  0  0  0  0  0  0  0  0  0
   11.2852    7.9138   23.3277 C   0  0  0  0  0  0  0  0  0  0  0  0
    9.5961    8.2863   21.7307 C   0  0  0  0  0  0  0  0  0  0  0  0
    9.4853    8.0650   20.5978 N   0  0  0  0  0  0  0  0  0  0  0  0
    7.9796    9.7192   24.5787 N   0  0  0  0  0  0  0  0  0  0  0  0
  2  1  1  1
  2  3  1  0
  2  4  1  0
  4  5  2  0
  4  6  1  0
  6  7  1  0
  7  8  1  0
  8  9  2  0
  9 10  1  0
 10 11  1  0
 10 12  1  0
 10 13  1  0
  9 14  1  0
 14 15  1  0
 15 16  2  0
 15 17  1  0
 17 18  1  6
 17 19  1  0
 19 20  3  0
 14 21  1  0
 21  7  2  0
M  END
$$$$

     RDKit          3D

 21 21  0  0  0  0  0  0  0  0999 V2000
    4.9351    8.2255   28.4716 C   0  0  0  0  0  0  0  0  0  0  0  0
    4.7311    9.3036   27.4298 C   0  0  1  0  0  0  0  0  0  0  0  0
    3.5816   10.0590   27.9184 N   0  0  0  0  0  0  0  0  0  0  0  0
    5.9294   10.2264   27.3842 C   0  0  0  0  0  0  0  0  0  0  0  0
    6.7437   10.2729   28.3063 O   0  0  0  0  0  0  0  0  0  0  0  0
    5.9744   11.0894   26.2965 N   0  0  0  0  0  0  0  0  0  0  0  0
    7.1171   11.1506   25.5133 C   0  0  0  0  0  0  0  0  0  0  0  0
    7.7641   12.2856   24.9745 C   0  0  0  0  0  0  0  0  0  0  0  0
    8.8148   11.8076   24.2028 C   0  0  0  0  0  0  0  0  0  0  0  0
    9.8216   12.5424   23.4176 C   0  0  0  0  0  0  0  0  0  0  0  0
    9.3146   12.9052   22.2232 F   0  0  0  0  0  0  0  0  0  0  0  0
   10.9433   11.8279   23.2075 F   0  0  0  0  0  0  0  0  0  0  0  0
   10.2102   13.6718   24.0519 F   0  0  0  0  0  0  0  0  0  0  0  0
    8.6140   10.4474   24.1592 N   0  0  0  0  0  0  0  0  0  0  0  0
    9.0310    9.4578   23.2923 C   0  0  0  0  0  0  0  0  0  0  0  0
    8.2722    8.5446   23.0393 O   0  0  0  0  0  0  0  0  0  0  0  0
   10.3549    9.5924   22.7578 C   0  0  2  0  0  0  0  0  0  0  0  0
   10.2510    9.1070   21.3743 C   0  0  0  0  0  0  0  0  0  0  0  0
   11.0731    8.5400   23.3422 C   0  0  0  0  0  0  0  0  0  0  0  0
   11.6758    7.6229   23.6424 N   0  0  0  0  0  0  0  0  0  0  0  0
    7.6966   10.0514   25.0684 N   0  0  0  0  0  0  0  0  0  0  0  0
  2  1  1  1
  2  3  1  0
  2  4  1  0
  4  5  2  0
  4  6  1  0
  6  7  1  0
  7  8  1  0
  8  9  2  0
  9 10  1  0
 10 11  1  0
 10 12  1  0
 10 13  1  0
  9 14  1  0
 14 15  1  0
 15 16  2  0
 15 17  1  0
 17 18  1  6
 17 19  1  0
 19 20  3  0
 14 21  1  0
 21  7  2  0
M  END
$$$$

     RDKit          3D

 21 21  0  0  0  0  0  0  0  0999 V2000
    4.9097    8.7421   29.0660 C   0  0  0  0  0  0  0  0  0  0  0  0
    4.6449    9.4681   27.7702 C   0  0  2  0  0  0  0  0  0  0  0  0
    3.9692    8.5485   26.8775 N   0  0  0  0  0  0  0  0  0  0  0  0
    5.9196   10.0822   27.2217 C   0  0  0  0  0  0  0  0  0  0  0  0
    6.7302   10.5753   28.0078 O   0  0  0  0  0  0  0  0  0  0  0  0
    6.0346   10.1816   25.8576 N   0  0  0  0  0  0  0  0  0  0  0  0
    7.1970   10.5927   25.2195 C   0  0  0  0  0  0  0  0  0  0  0  0
    7.5811   11.9236   24.9151 C   0  0  0  0  0  0  0  0  0  0  0  0
    8.6729   11.8104   24.0808 C   0  0  0  0  0  0  0  0  0  0  0  0
    9.4908   12.7961   23.3443 C   0  0  0  0  0  0  0  0  0  0  0  0
    9.9846   12.3244   22.1917 F   0  0  0  0  0  0  0  0  0  0  0  0
   10.5071   13.2795   24.0920 F   0  0  0  0  0  0  0  0  0  0  0  0
    8.7209   13.8512   22.9788 F   0  0  0  0  0  0  0  0  0  0  0  0
    8.9228   10.4684   23.9730 N   0  0  0  0  0  0  0  0  0  0  0  0
   10.0374    9.8797   23.4104 C   0  0  0  0  0  0  0  0  0  0  0  0
   11.0134   10.5852   23.2593 O   0  0  0  0  0  0  0  0  0  0  0  0
    9.9068    8.4596   23.1228 C   0  0  2  0  0  0  0  0  0  0  0  0
   11.2852    7.9138   23.3277 C   0  0  0  0  0  0  0  0  0  0  0  0
    9.5961    8.2863   21.7307 C   0  0  0  0  0  0  0  0  0  0  0  0
    9.4853    8.0650   20.5978 N   0  0  0  0  0  0  0  0  0  0  0  0
    7.9796    9.7192   24.5787 N   0  0  0  0  0  0  0  0  0  0  0  0
  2  1  1  1
  2  3  1  0
  2  4  1  0
  4  5  2  0
  4  6  1  0
  6  7  1  0
  7  8  1  0
  8  9  2  0
  9 10  1  0
 10 11  1  0
 10 12  1  0
 10 13  1  0
  9 14  1  0
 14 15  1  0
 15 16  2  0
 15 17  1  0
 17 18  1  6
 17 19  1  0
 19 20  3  0
 14 21  1  0
 21  7  2  0
M  END
$$$$

     RDKit          3D

 21 21  0  0  0  0  0  0  0  0999 V2000
    4.9351    8.2255   28.4716 C   0  0  0  0  0  0  0  0  0  0  0  0
    4.7311    9.3036   27.4298 C   0  0  1  0  0  0  0  0  0  0  0  0
    3.5816   10.0590   27.9184 N   0  0  0  0  0  0  0  0  0  0  0  0
    5.9294   10.2264   27.3842 C   0  0  0  0  0  0  0  0  0  0  0  0
    6.7437   10.2729   28.3063 O   0  0  0  0  0  0  0  0  0  0  0  0
    5.9744   11.0894   26.2965 N   0  0  0  0  0  0  0  0  0  0  0  0
    7.1171   11.1506   25.5133 C   0  0  0  0  0  0  0  0  0  0  0  0
    7.7641   12.2856   24.9745 C   0  0  0  0  0  0  0  0  0  0  0  0
    8.8148   11.8076   24.2028 C   0  0  0  0  0  0  0  0  0  0  0  0
    9.8216   12.5424   23.4176 C   0  0  0  0  0  0  0  0  0  0  0  0
    9.3146   12.9052   22.2232 F   0  0  0  0  0  0  0  0  0  0  0  0
   10.9433   11.8279   23.2075 F   0  0  0  0  0  0  0  0  0  0  0  0
   10.2102   13.6718   24.0519 F   0  0  0  0  0  0  0  0  0  0  0  0
    8.6140   10.4474   24.1592 N   0  0  0  0  0  0  0  0  0  0  0  0
    9.0310    9.4578   23.2923 C   0  0  0  0  0  0  0  0  0  0  0  0
    8.2722    8.5446   23.0393 O   0  0  0  0  0  0  0  0  0  0  0  0
   10.3549    9.5924   22.7578 C   0  0  2  0  0  0  0  0  0  0  0  0
   10.2510    9.1070   21.3743 C   0  0  0  0  0  0  0  0  0  0  0  0
   11.0731    8.5400   23.3422 C   0  0  0  0  0  0  0  0  0  0  0  0
   11.6758    7.6229   23.6424 N   0  0  0  0  0  0  0  0  0  0  0  0
    7.6966   10.0514   25.0684 N   0  0  0  0  0  0  0  0  0  0  0  0
  2  1  1  1
  2  3  1  0
  2  4  1  0
  4  5  2  0
  4  6  1  0
  6  7  1  0
  7  8  1  0
  8  9  2  0
  9 10  1  0
 10 11  1  0
 10 12  1  0
 10 13  1  0
  9 14  1  0
 14 15  1  0
 15 16  2  0
 15 17  1  0
 17 18  1  6
 17 19  1  0
 19 20  3  0
 14 21  1  0
 21  7  2  0
M  END
$$$$

     RDKit          3D

 21 21  0  0  0  0  0  0  0  0999 V2000
    4.9097    8.7421   29.0660 C   0  0  0  0  0  0  0  0  0  0  0  0
    4.6449    9.4681   27.7702 C   0  0  2  0  0  0  0  0  0  0  0  0
    3.9692    8.5485   26.8775 N   0  0  0  0  0  0  0  0  0  0  0  0
    5.9196   10.0822   27.2217 C   0  0  0  0  0  0  0  0  0  0  0  0
    6.7302   10.5753   28.0078 O   0  0  0  0  0  0  0  0  0  0  0  0
    6.0346   10.1816   25.8576 N   0  0  0  0  0  0  0  0  0  0  0  0
    7.1970   10.5927   25.2195 C   0  0  0  0  0  0  0  0  0  0  0  0
    7.5811   11.9236   24.9151 C   0  0  0  0  0  0  0  0  0  0  0  0
    8.6729   11.8104   24.0808 C   0  0  0  0  0  0  0  0  0  0  0  0
    9.4908   12.7961   23.3443 C   0  0  0  0  0  0  0  0  0  0  0  0
    9.9846   12.3244   22.1917 F   0  0  0  0  0  0  0  0  0  0  0  0
   10.5071   13.2795   24.0920 F   0  0  0  0  0  0  0  0  0  0  0  0
    8.7209   13.8512   22.9788 F   0  0  0  0  0  0  0  0  0  0  0  0
    8.9228   10.4684   23.9730 N   0  0  0  0  0  0  0  0  0  0  0  0
   10.0374    9.8797   23.4104 C   0  0  0  0  0  0  0  0  0  0  0  0
   11.0134   10.5852   23.2593 O   0  0  0  0  0  0  0  0  0  0  0  0
    9.9068    8.4596   23.1228 C   0  0  2  0  0  0  0  0  0  0  0  0
   11.2852    7.9138   23.3277 C   0  0  0  0  0  0  0  0  0  0  0  0
    9.5961    8.2863   21.7307 C   0  0  0  0  0  0  0  0  0  0  0  0
    9.4853    8.0650   20.5978 N   0  0  0  0  0  0  0  0  0  0  0  0
    7.9796    9.7192   24.5787 N   0  0  0  0  0  0  0  0  0  0  0  0
  2  1  1  1
  2  3  1  0
  2  4  1  0
  4  5  2  0
  4  6  1  0
  6  7  1  0
  7  8  1  0
  8  9  2  0
  9 10  1  0
 10 11  1  0
 10 12  1  0
 10 13  1  0
  9 14  1  0
 14 15  1  0
 15 16  2  0
 15 17  1  0
 17 18  1  6
 17 19  1  0
 19 20  3  0
 14 21  1  0
 21  7  2  0
M  END
$$$$

     RDKit          3D

 21 21  0  0  0  0  0  0  0  0999 V2000
    4.9351    8.2255   28.4716 C   0  0  0  0  0  0  0  0  0  0  0  0
    4.7311    9.3036   27.4298 C   0  0  1  0  0  0  0  0  0  0  0  0
    3.5816   10.0590   27.9184 N   0  0  0  0  0  0  0  0  0  0  0  0
    5.9294   10.2264   27.3842 C   0  0  0  0  0  0  0  0  0  0  0  0
    6.7437   10.2729   28.3063 O   0  0  0  0  0  0  0  0  0  0  0  0
    5.9744   11.0894   26.2965 N   0  0  0  0  0  0  0  0  0  0  0  0
    7.1171   11.1506   25.5133 C   0  0  0  0  0  0  0  0  0  0  0  0
    7.7641   12.2856   24.9745 C   0  0  0  0  0  0  0  0  0  0  0  0
    8.8148   11.8076   24.2028 C   0  0  0  0  0  0  0  0  0  0  0  0
    9.8216   12.5424   23.4176 C   0  0  0  0  0  0  0  0  0  0  0  0
    9.3146   12.9052   22.2232 F   0  0  0  0  0  0  0  0  0  0  0  0
   10.9433   11.8279   23.2075 F   0  0  0  0  0  0  0  0  0  0  0  0
   10.2102   13.6718   24.0519 F   0  0  0  0  0  0  0  0  0  0  0  0
    8.6140   10.4474   24.1592 N   0  0  0  0  0  0  0  0  0  0  0  0
    9.0310    9.4578   23.2923 C   0  0  0  0  0  0  0  0  0  0  0  0
    8.2722    8.5446   23.0393 O   0  0  0  0  0  0  0  0  0  0  0  0
   10.3549    9.5924   22.7578 C   0  0  2  0  0  0  0  0  0  0  0  0
   10.2510    9.1070   21.3743 C   0  0  0  0  0  0  0  0  0  0  0  0
   11.0731    8.5400   23.3422 C   0  0  0  0  0  0  0  0  0  0  0  0
   11.6758    7.6229   23.6424 N   0  0  0  0  0  0  0  0  0  0  0  0
    7.6966   10.0514   25.0684 N   0  0  0  0  0  0  0  0  0  0  0  0
  2  1  1  1
  2  3  1  0
  2  4  1  0
  4  5  2  0
  4  6  1  0
  6  7  1  0
  7  8  1  0
  8  9  2  0
  9 10  1  0
 10 11  1  0
 10 12  1  0
 10 13  1  0
  9 14  1  0
 14 15  1  0
 15 16  2  0
 15 17  1  0
 17 18  1  6
 17 19  1  0
 19 20  3  0
 14 21  1  0
 21  7  2  0
M  END
$$$$

     RDKit          3D

 21 21  0  0  0  0  0  0  0  0999 V2000
   10.0908    8.9565   22.8284 C   0  0  0  0  0  0  0  0  0  0  0  0
    9.2142    9.8659   23.5861 C   0  0  0  0  0  0  0  0  0  0  0  0
    9.1878   11.2797   23.5476 C   0  0  0  0  0  0  0  0  0  0  0  0
    8.2239   11.6221   24.4666 C   0  0  0  0  0  0  0  0  0  0  0  0
    7.7314   12.7935   24.9539 N   0  0  0  0  0  0  0  0  0  0  0  0
    8.1682   14.0171   24.5396 C   0  0  0  0  0  0  0  0  0  0  0  0
    8.8565   14.2201   23.5412 O   0  0  0  0  0  0  0  0  0  0  0  0
    7.6554   15.1188   25.4245 C   0  0  1  0  0  0  0  0  0  0  0  0
    8.7584   15.9975   25.5619 O   0  0  0  0  0  0  0  0  0  0  0  0
    6.4527   15.7474   24.7569 C   0  0  0  0  0  0  0  0  0  0  0  0
    5.3241   14.8893   24.8156 O   0  0  0  0  0  0  0  0  0  0  0  0
    7.3871   14.7941   26.8500 C   0  0  0  0  0  0  0  0  0  0  0  0
    6.4684   13.8344   27.0413 F   0  0  0  0  0  0  0  0  0  0  0  0
    6.9603   15.9090   27.4993 F   0  0  0  0  0  0  0  0  0  0  0  0
    8.5237   14.3962   27.4694 F   0  0  0  0  0  0  0  0  0  0  0  0
    7.7867   10.4605   25.0029 N   0  0  0  0  0  0  0  0  0  0  0  0
    6.9968   10.3611   26.2018 C   0  0  0  0  0  0  0  0  0  0  0  0
    5.6299    9.8465   25.9313 C   0  0  0  0  0  0  0  0  0  0  0  0
    4.7442   10.2096   27.0237 C   0  0  0  0  0  0  0  0  0  0  0  0
    3.9703   10.5184   27.8324 N   0  0  0  0  0  0  0  0  0  0  0  0
    8.3124    9.3752   24.4464 N   0  0  0  0  0  0  0  0  0  0  0  0
  1  2  1  0
  2  3  1  0
  3  4  2  0
  4  5  1  0
  5  6  1  0
  6  7  2  0
  6  8  1  0
  8  9  1  1
  8 10  1  0
 10 11  1  0
  8 12  1  0
 12 13  1  0
 12 14  1  0
 12 15  1  0
  4 16  1  0
 16 17  1  0
 17 18  1  0
 18 19  1  0
 19 20  3  0
 16 21  1  0
 21  2  2  0
M  END
$$$$

     RDKit          3D

 19 19  0  0  0  0  0  0  0  0999 V2000
    9.6437    9.1471   23.3227 C   0  0  0  0  0  0  0  0  0  0  0  0
    8.8861   10.2092   23.9589 N   0  0  0  0  0  0  0  0  0  0  0  0
    7.8810    9.8968   24.8015 N   0  0  0  0  0  0  0  0  0  0  0  0
    7.4335   11.0840   25.2528 C   0  0  0  0  0  0  0  0  0  0  0  0
    6.3685   11.2263   26.3017 C   0  0  0  0  0  0  0  0  0  0  0  0
    5.4424   12.1738   25.9844 F   0  0  0  0  0  0  0  0  0  0  0  0
    5.6662   10.0898   26.5522 F   0  0  0  0  0  0  0  0  0  0  0  0
    6.8916   11.6174   27.4997 F   0  0  0  0  0  0  0  0  0  0  0  0
    8.1573   12.1443   24.6523 C   0  0  0  0  0  0  0  0  0  0  0  0
    9.1189   11.5503   23.8615 C   0  0  0  0  0  0  0  0  0  0  0  0
   10.1973   12.0569   23.1589 N   0  0  0  0  0  0  0  0  0  0  0  0
   10.6681   13.3471   23.3870 C   0  0  0  0  0  0  0  0  0  0  0  0
   10.1588   14.1347   24.1827 O   0  0  0  0  0  0  0  0  0  0  0  0
   11.9166   13.6228   22.5823 C   0  0  2  0  0  0  0  0  0  0  0  0
   12.9045   12.7567   22.9762 F   0  0  0  0  0  0  0  0  0  0  0  0
   12.4204   15.0074   22.8827 C   0  0  0  0  0  0  0  0  0  0  0  0
   11.5062   15.9750   22.6920 F   0  0  0  0  0  0  0  0  0  0  0  0
   13.4630   15.3355   22.0950 F   0  0  0  0  0  0  0  0  0  0  0  0
   12.8361   15.0691   24.1656 F   0  0  0  0  0  0  0  0  0  0  0  0
  1  2  1  0
  2  3  1  0
  3  4  2  0
  4  5  1  0
  5  6  1  0
  5  7  1  0
  5  8  1  0
  4  9  1  0
  9 10  2  0
 10 11  1  0
 11 12  1  0
 12 13  2  0
 12 14  1  0
 14 15  1  1
 14 16  1  0
 16 17  1  0
 16 18  1  0
 16 19  1  0
 10  2  1  0
M  END
$$$$

     RDKit          3D

 28 30  0  0  0  0  0  0  0  0999 V2000
   10.0182   10.3331   22.0616 C   0  0  0  0  0  0  0  0  0  0  0  0
    9.5185    9.7119   23.3080 C   0  0  0  0  0  0  0  0  0  0  0  0
    8.7246    8.5311   22.8833 C   0  0  0  0  0  0  0  0  0  0  0  0
   10.7948    9.1869   23.8524 C   0  0  0  0  0  0  0  0  0  0  0  0
    8.7169   10.5983   24.1349 N   0  0  0  0  0  0  0  0  0  0  0  0
    7.8908   10.0660   25.0627 N   0  0  0  0  0  0  0  0  0  0  0  0
    7.0974   11.0621   25.4991 C   0  0  0  0  0  0  0  0  0  0  0  0
    6.1262   10.7914   26.5659 C   0  0  0  0  0  0  0  0  0  0  0  0
    5.0160   11.5304   26.9364 C   0  0  0  0  0  0  0  0  0  0  0  0
    4.1549   11.0327   27.9619 C   0  0  0  0  0  0  0  0  0  0  0  0
    4.4261    9.8448   28.6387 C   0  0  0  0  0  0  0  0  0  0  0  0
    3.6643    9.4045   29.6419 F   0  0  0  0  0  0  0  0  0  0  0  0
    5.5281    9.1286   28.3050 C   0  0  0  0  0  0  0  0  0  0  0  0
    6.3242    9.6303   27.2914 C   0  0  0  0  0  0  0  0  0  0  0  0
    7.3945   12.2525   24.7932 C   0  0  0  0  0  0  0  0  0  0  0  0
    8.4468   11.9383   23.9558 C   0  0  0  0  0  0  0  0  0  0  0  0
    9.1633   12.7613   23.1082 N   0  0  0  0  0  0  0  0  0  0  0  0
   10.4441   13.0825   23.5049 C   0  0  0  0  0  0  0  0  0  0  0  0
   10.8955   12.8325   24.6163 O   0  0  0  0  0  0  0  0  0  0  0  0
   11.2233   13.7859   22.4410 C   0  0  0  0  0  0  0  0  0  0  0  0
   12.3462   14.6255   23.0178 C   0  0  0  0  0  0  0  0  0  0  0  0
   13.0222   15.2321   21.8899 C   0  0  0  0  0  0  0  0  0  0  0  0
   13.4465   15.8815   21.0364 N   0  0  0  0  0  0  0  0  0  0  0  0
   11.8215   15.8101   23.7719 C   0  0  0  0  0  0  0  0  0  0  0  0
   11.4994   15.5296   25.2074 C   0  0  0  0  0  0  0  0  0  0  0  0
   12.6917   15.0707   25.9889 C   0  0  0  0  0  0  0  0  0  0  0  0
   13.6869   14.2542   25.2133 C   0  0  0  0  0  0  0  0  0  0  0  0
   13.2962   13.7833   23.8360 C   0  0  0  0  0  0  0  0  0  0  0  0
  1  2  1  0
  2  3  1  0
  2  4  1  0
  2  5  1  0
  5  6  1  0
  6  7  2  0
  7  8  1  0
  8  9  2  0
  9 10  1  0
 10 11  2  0
 11 12  1  0
 11 13  1  0
 13 14  2  0
  7 15  1  0
 15 16  2  0
 16 17  1  0
 17 18  1  0
 18 19  2  0
 18 20  1  0
 20 21  1  0
 21 22  1  0
 22 23  3  0
 21 24  1  0
 24 25  1  0
 25 26  1  0
 26 27  1  0
 27 28  1  0
 16  5  1  0
 28 21  1  0
 14  8  1  0
M  END
$$$$

     RDKit          3D

 17 17  0  0  0  0  0  0  0  0999 V2000
   12.0725   16.3969   22.9560 C   0  0  0  0  0  0  0  0  0  0  0  0
   12.6379   15.0186   22.9221 C   0  0  0  0  0  0  0  0  0  0  0  0
   13.1339   14.5284   24.2630 C   0  0  0  0  0  0  0  0  0  0  0  0
   11.6562   14.0886   22.2778 C   0  0  1  0  0  0  0  0  0  0  0  0
   12.4872   13.1214   21.5246 C   0  0  0  0  0  0  0  0  0  0  0  0
   10.7350   13.4414   23.2755 C   0  0  0  0  0  0  0  0  0  0  0  0
   10.3483   14.0458   24.2813 O   0  0  0  0  0  0  0  0  0  0  0  0
   10.3161   12.1636   22.9447 N   0  0  0  0  0  0  0  0  0  0  0  0
    9.2575   11.5497   23.6274 C   0  0  0  0  0  0  0  0  0  0  0  0
    8.3249   12.3748   24.2524 C   0  0  0  0  0  0  0  0  0  0  0  0
    7.3805   11.8137   25.0600 C   0  0  0  0  0  0  0  0  0  0  0  0
    6.2908   12.8108   25.9171 Cl  0  0  0  0  0  0  0  0  0  0  0  0
    7.2733   10.4870   25.2589 N   0  0  0  0  0  0  0  0  0  0  0  0
    8.1635    9.6987   24.5978 C   0  0  0  0  0  0  0  0  0  0  0  0
    9.1477   10.1740   23.7613 C   0  0  0  0  0  0  0  0  0  0  0  0
    9.9945    9.1776   23.1184 C   0  0  0  0  0  0  0  0  0  0  0  0
   10.2193    9.2628   21.9211 O   0  0  0  0  0  0  0  0  0  0  0  0
  1  2  1  0
  2  3  1  0
  2  4  1  0
  4  5  1  1
  4  6  1  0
  6  7  2  0
  6  8  1  0
  8  9  1  0
  9 10  2  0
 10 11  1  0
 11 12  1  0
 11 13  2  0
 13 14  1  0
 14 15  2  0
 15 16  1  0
 16 17  2  0
 15  9  1  0
M  END
$$$$

     RDKit          3D

 17 17  0  0  0  0  0  0  0  0999 V2000
   12.0725   16.3969   22.9560 C   0  0  0  0  0  0  0  0  0  0  0  0
   12.6379   15.0186   22.9221 C   0  0  0  0  0  0  0  0  0  0  0  0
   13.1339   14.5284   24.2630 C   0  0  0  0  0  0  0  0  0  0  0  0
   11.6562   14.0886   22.2778 C   0  0  1  0  0  0  0  0  0  0  0  0
   12.4872   13.1214   21.5246 C   0  0  0  0  0  0  0  0  0  0  0  0
   10.7350   13.4414   23.2755 C   0  0  0  0  0  0  0  0  0  0  0  0
   10.3483   14.0458   24.2813 O   0  0  0  0  0  0  0  0  0  0  0  0
   10.3161   12.1636   22.9447 N   0  0  0  0  0  0  0  0  0  0  0  0
    9.2575   11.5497   23.6274 C   0  0  0  0  0  0  0  0  0  0  0  0
    8.3249   12.3748   24.2524 C   0  0  0  0  0  0  0  0  0  0  0  0
    7.3805   11.8137   25.0600 C   0  0  0  0  0  0  0  0  0  0  0  0
    6.2908   12.8108   25.9171 Cl  0  0  0  0  0  0  0  0  0  0  0  0
    7.2733   10.4870   25.2589 N   0  0  0  0  0  0  0  0  0  0  0  0
    8.1635    9.6987   24.5978 C   0  0  0  0  0  0  0  0  0  0  0  0
    9.1477   10.1740   23.7613 C   0  0  0  0  0  0  0  0  0  0  0  0
    9.9945    9.1776   23.1184 C   0  0  0  0  0  0  0  0  0  0  0  0
   10.2193    9.2628   21.9211 O   0  0  0  0  0  0  0  0  0  0  0  0
  1  2  1  0
  2  3  1  0
  2  4  1  0
  4  5  1  1
  4  6  1  0
  6  7  2  0
  6  8  1  0
  8  9  1  0
  9 10  2  0
 10 11  1  0
 11 12  1  0
 11 13  2  0
 13 14  1  0
 14 15  2  0
 15 16  1  0
 16 17  2  0
 15  9  1  0
M  END
$$$$

     RDKit          3D

 20 20  0  0  0  0  0  0  0  0999 V2000
    9.7496    9.2657   23.2569 C   0  0  0  0  0  0  0  0  0  0  0  0
    8.9432   10.2661   23.9317 N   0  0  0  0  0  0  0  0  0  0  0  0
    7.9715    9.8659   24.7716 N   0  0  0  0  0  0  0  0  0  0  0  0
    7.4409   11.0060   25.2503 C   0  0  0  0  0  0  0  0  0  0  0  0
    6.3118   11.0165   26.2384 C   0  0  0  0  0  0  0  0  0  0  0  0
    5.8242   12.2711   26.4623 F   0  0  0  0  0  0  0  0  0  0  0  0
    6.6598   10.5340   27.4621 F   0  0  0  0  0  0  0  0  0  0  0  0
    5.2465   10.2767   25.8495 F   0  0  0  0  0  0  0  0  0  0  0  0
    8.1089   12.1305   24.6991 C   0  0  0  0  0  0  0  0  0  0  0  0
    9.0962   11.6226   23.8791 C   0  0  0  0  0  0  0  0  0  0  0  0
   10.1202   12.2153   23.1634 N   0  0  0  0  0  0  0  0  0  0  0  0
   10.5881   13.4981   23.4556 C   0  0  0  0  0  0  0  0  0  0  0  0
   10.1388   14.1962   24.3651 O   0  0  0  0  0  0  0  0  0  0  0  0
   11.7092   13.9429   22.5350 C   0  0  2  0  0  0  0  0  0  0  0  0
   11.1993   14.1721   21.1353 C   0  0  0  0  0  0  0  0  0  0  0  0
   12.6535   12.8952   22.5382 O   0  0  0  0  0  0  0  0  0  0  0  0
   12.4303   15.1519   23.0511 C   0  0  0  0  0  0  0  0  0  0  0  0
   11.6608   16.2526   23.1389 F   0  0  0  0  0  0  0  0  0  0  0  0
   13.4500   15.4875   22.2301 F   0  0  0  0  0  0  0  0  0  0  0  0
   12.9511   14.8963   24.2720 F   0  0  0  0  0  0  0  0  0  0  0  0
  1  2  1  0
  2  3  1  0
  3  4  2  0
  4  5  1  0
  5  6  1  0
  5  7  1  0
  5  8  1  0
  4  9  1  0
  9 10  2  0
 10 11  1  0
 11 12  1  0
 12 13  2  0
 12 14  1  0
 14 15  1  6
 14 16  1  0
 14 17  1  0
 17 18  1  0
 17 19  1  0
 17 20  1  0
 10  2  1  0
M  END
$$$$

     RDKit          3D

 20 20  0  0  0  0  0  0  0  0999 V2000
    9.6694    9.2832   23.2904 C   0  0  0  0  0  0  0  0  0  0  0  0
    8.8956   10.3200   23.9492 N   0  0  0  0  0  0  0  0  0  0  0  0
    7.9080    9.9670   24.7979 N   0  0  0  0  0  0  0  0  0  0  0  0
    7.4336   11.1350   25.2714 C   0  0  0  0  0  0  0  0  0  0  0  0
    6.3656   11.2361   26.3215 C   0  0  0  0  0  0  0  0  0  0  0  0
    5.4228   12.1728   26.0207 F   0  0  0  0  0  0  0  0  0  0  0  0
    5.6837   10.0827   26.5484 F   0  0  0  0  0  0  0  0  0  0  0  0
    6.8802   11.6137   27.5274 F   0  0  0  0  0  0  0  0  0  0  0  0
    8.1276   12.2235   24.6868 C   0  0  0  0  0  0  0  0  0  0  0  0
    9.0891   11.6696   23.8677 C   0  0  0  0  0  0  0  0  0  0  0  0
   10.1055   12.2377   23.1195 N   0  0  0  0  0  0  0  0  0  0  0  0
   10.6100   13.5041   23.4245 C   0  0  0  0  0  0  0  0  0  0  0  0
   10.3132   14.1190   24.4508 O   0  0  0  0  0  0  0  0  0  0  0  0
   11.5144   14.0760   22.3466 C   0  0  1  0  0  0  0  0  0  0  0  0
   12.4532   13.0363   21.8480 C   0  0  0  0  0  0  0  0  0  0  0  0
   10.7127   14.5044   21.2596 O   0  0  0  0  0  0  0  0  0  0  0  0
   12.3893   15.1741   22.8913 C   0  0  0  0  0  0  0  0  0  0  0  0
   13.2480   15.6241   21.9481 F   0  0  0  0  0  0  0  0  0  0  0  0
   11.7091   16.2537   23.3179 F   0  0  0  0  0  0  0  0  0  0  0  0
   13.1324   14.7052   23.9235 F   0  0  0  0  0  0  0  0  0  0  0  0
  1  2  1  0
  2  3  1  0
  3  4  2  0
  4  5  1  0
  5  6  1  0
  5  7  1  0
  5  8  1  0
  4  9  1  0
  9 10  2  0
 10 11  1  0
 11 12  1  0
 12 13  2  0
 12 14  1  0
 14 15  1  6
 14 16  1  0
 14 17  1  0
 17 18  1  0
 17 19  1  0
 17 20  1  0
 10  2  1  0
M  END
$$$$

     RDKit          3D

 17 18  0  0  0  0  0  0  0  0999 V2000
   12.8084   13.0397   23.4488 C   0  0  0  0  0  0  0  0  0  0  0  0
   11.5961   13.5952   22.7411 C   0  0  2  0  0  0  0  0  0  0  0  0
   11.8050   15.0371   22.6201 C   0  0  0  0  0  0  0  0  0  0  0  0
   12.0009   16.1810   22.5771 N   0  0  0  0  0  0  0  0  0  0  0  0
   10.4045   13.2611   23.6180 C   0  0  0  0  0  0  0  0  0  0  0  0
    9.9863   14.0085   24.5022 O   0  0  0  0  0  0  0  0  0  0  0  0
    9.9414   11.9736   23.3738 N   0  0  0  0  0  0  0  0  0  0  0  0
    8.9301   11.3616   24.1024 C   0  0  0  0  0  0  0  0  0  0  0  0
    7.9713   11.7976   25.0100 C   0  0  0  0  0  0  0  0  0  0  0  0
    7.2901   10.6269   25.4724 C   0  0  0  0  0  0  0  0  0  0  0  0
    6.0870   10.6115   26.5195 C   0  0  0  0  0  0  0  0  0  0  0  0
    5.0046    9.5293   26.3860 C   0  0  0  0  0  0  0  0  0  0  0  0
    4.9447    9.3735   27.9046 C   0  0  0  0  0  0  0  0  0  0  0  0
    6.3044   10.0826   27.9526 C   0  0  0  0  0  0  0  0  0  0  0  0
    7.7588    9.5526   24.8329 N   0  0  0  0  0  0  0  0  0  0  0  0
    8.7604   10.0047   24.0536 N   0  0  0  0  0  0  0  0  0  0  0  0
    9.5570    9.0575   23.2910 C   0  0  0  0  0  0  0  0  0  0  0  0
  2  1  1  1
  2  3  1  0
  3  4  3  0
  2  5  1  0
  5  6  2  0
  5  7  1  0
  7  8  1  0
  8  9  2  0
  9 10  1  0
 10 11  1  0
 11 12  1  0
 12 13  1  0
 13 14  1  0
 10 15  2  0
 15 16  1  0
 16 17  1  0
 16  8  1  0
 14 11  1  0
M  END
$$$$

     RDKit          3D

 17 18  0  0  0  0  0  0  0  0999 V2000
   10.4697   13.9395   21.1521 C   0  0  0  0  0  0  0  0  0  0  0  0
   11.2974   13.7112   22.3974 C   0  0  1  0  0  0  0  0  0  0  0  0
   11.8699   15.0149   22.7159 C   0  0  0  0  0  0  0  0  0  0  0  0
   12.2090   16.1045   22.9221 N   0  0  0  0  0  0  0  0  0  0  0  0
   10.3787   13.2335   23.5147 C   0  0  0  0  0  0  0  0  0  0  0  0
   10.1148   13.9072   24.5117 O   0  0  0  0  0  0  0  0  0  0  0  0
    9.8941   11.9534   23.2815 N   0  0  0  0  0  0  0  0  0  0  0  0
    8.9270   11.3403   24.0671 C   0  0  0  0  0  0  0  0  0  0  0  0
    7.9823   11.7843   24.9861 C   0  0  0  0  0  0  0  0  0  0  0  0
    7.3056   10.6173   25.4657 C   0  0  0  0  0  0  0  0  0  0  0  0
    6.1024   10.6113   26.5139 C   0  0  0  0  0  0  0  0  0  0  0  0
    5.0124    9.5366   26.3799 C   0  0  0  0  0  0  0  0  0  0  0  0
    4.9508    9.3799   27.8983 C   0  0  0  0  0  0  0  0  0  0  0  0
    6.3138   10.0824   27.9478 C   0  0  0  0  0  0  0  0  0  0  0  0
    7.7705    9.5375   24.8327 N   0  0  0  0  0  0  0  0  0  0  0  0
    8.7682    9.9824   24.0445 N   0  0  0  0  0  0  0  0  0  0  0  0
    9.5624    9.0309   23.2855 C   0  0  0  0  0  0  0  0  0  0  0  0
  2  1  1  6
  2  3  1  0
  3  4  3  0
  2  5  1  0
  5  6  2  0
  5  7  1  0
  7  8  1  0
  8  9  2  0
  9 10  1  0
 10 11  1  0
 11 12  1  0
 12 13  1  0
 13 14  1  0
 10 15  2  0
 15 16  1  0
 16 17  1  0
 16  8  1  0
 14 11  1  0
M  END
$$$$

     RDKit          3D

 17 18  0  0  0  0  0  0  0  0999 V2000
   12.8084   13.0397   23.4488 C   0  0  0  0  0  0  0  0  0  0  0  0
   11.5961   13.5952   22.7411 C   0  0  2  0  0  0  0  0  0  0  0  0
   11.8050   15.0371   22.6201 C   0  0  0  0  0  0  0  0  0  0  0  0
   12.0009   16.1810   22.5771 N   0  0  0  0  0  0  0  0  0  0  0  0
   10.4045   13.2611   23.6180 C   0  0  0  0  0  0  0  0  0  0  0  0
    9.9863   14.0085   24.5022 O   0  0  0  0  0  0  0  0  0  0  0  0
    9.9414   11.9736   23.3738 N   0  0  0  0  0  0  0  0  0  0  0  0
    8.9301   11.3616   24.1024 C   0  0  0  0  0  0  0  0  0  0  0  0
    7.9713   11.7976   25.0100 C   0  0  0  0  0  0  0  0  0  0  0  0
    7.2901   10.6269   25.4724 C   0  0  0  0  0  0  0  0  0  0  0  0
    6.0870   10.6115   26.5195 C   0  0  0  0  0  0  0  0  0  0  0  0
    5.0046    9.5293   26.3860 C   0  0  0  0  0  0  0  0  0  0  0  0
    4.9447    9.3735   27.9046 C   0  0  0  0  0  0  0  0  0  0  0  0
    6.3044   10.0826   27.9526 C   0  0  0  0  0  0  0  0  0  0  0  0
    7.7588    9.5526   24.8329 N   0  0  0  0  0  0  0  0  0  0  0  0
    8.7604   10.0047   24.0536 N   0  0  0  0  0  0  0  0  0  0  0  0
    9.5570    9.0575   23.2910 C   0  0  0  0  0  0  0  0  0  0  0  0
  2  1  1  1
  2  3  1  0
  3  4  3  0
  2  5  1  0
  5  6  2  0
  5  7  1  0
  7  8  1  0
  8  9  2  0
  9 10  1  0
 10 11  1  0
 11 12  1  0
 12 13  1  0
 13 14  1  0
 10 15  2  0
 15 16  1  0
 16 17  1  0
 16  8  1  0
 14 11  1  0
M  END
$$$$

     RDKit          3D

 17 18  0  0  0  0  0  0  0  0999 V2000
   10.4697   13.9395   21.1521 C   0  0  0  0  0  0  0  0  0  0  0  0
   11.2974   13.7112   22.3974 C   0  0  1  0  0  0  0  0  0  0  0  0
   11.8699   15.0149   22.7159 C   0  0  0  0  0  0  0  0  0  0  0  0
   12.2090   16.1045   22.9221 N   0  0  0  0  0  0  0  0  0  0  0  0
   10.3787   13.2335   23.5147 C   0  0  0  0  0  0  0  0  0  0  0  0
   10.1148   13.9072   24.5117 O   0  0  0  0  0  0  0  0  0  0  0  0
    9.8941   11.9534   23.2815 N   0  0  0  0  0  0  0  0  0  0  0  0
    8.9270   11.3403   24.0671 C   0  0  0  0  0  0  0  0  0  0  0  0
    7.9823   11.7843   24.9861 C   0  0  0  0  0  0  0  0  0  0  0  0
    7.3056   10.6173   25.4657 C   0  0  0  0  0  0  0  0  0  0  0  0
    6.1024   10.6113   26.5139 C   0  0  0  0  0  0  0  0  0  0  0  0
    5.0124    9.5366   26.3799 C   0  0  0  0  0  0  0  0  0  0  0  0
    4.9508    9.3799   27.8983 C   0  0  0  0  0  0  0  0  0  0  0  0
    6.3138   10.0824   27.9478 C   0  0  0  0  0  0  0  0  0  0  0  0
    7.7705    9.5375   24.8327 N   0  0  0  0  0  0  0  0  0  0  0  0
    8.7682    9.9824   24.0445 N   0  0  0  0  0  0  0  0  0  0  0  0
    9.5624    9.0309   23.2855 C   0  0  0  0  0  0  0  0  0  0  0  0
  2  1  1  6
  2  3  1  0
  3  4  3  0
  2  5  1  0
  5  6  2  0
  5  7  1  0
  7  8  1  0
  8  9  2  0
  9 10  1  0
 10 11  1  0
 11 12  1  0
 12 13  1  0
 13 14  1  0
 10 15  2  0
 15 16  1  0
 16 17  1  0
 16  8  1  0
 14 11  1  0
M  END
$$$$

     RDKit          3D

 17 18  0  0  0  0  0  0  0  0999 V2000
   12.8084   13.0397   23.4488 C   0  0  0  0  0  0  0  0  0  0  0  0
   11.5961   13.5952   22.7411 C   0  0  2  0  0  0  0  0  0  0  0  0
   11.8050   15.0371   22.6201 C   0  0  0  0  0  0  0  0  0  0  0  0
   12.0009   16.1810   22.5771 N   0  0  0  0  0  0  0  0  0  0  0  0
   10.4045   13.2611   23.6180 C   0  0  0  0  0  0  0  0  0  0  0  0
    9.9863   14.0085   24.5022 O   0  0  0  0  0  0  0  0  0  0  0  0
    9.9414   11.9736   23.3738 N   0  0  0  0  0  0  0  0  0  0  0  0
    8.9301   11.3616   24.1024 C   0  0  0  0  0  0  0  0  0  0  0  0
    7.9713   11.7976   25.0100 C   0  0  0  0  0  0  0  0  0  0  0  0
    7.2901   10.6269   25.4724 C   0  0  0  0  0  0  0  0  0  0  0  0
    6.0870   10.6115   26.5195 C   0  0  0  0  0  0  0  0  0  0  0  0
    5.0046    9.5293   26.3860 C   0  0  0  0  0  0  0  0  0  0  0  0
    4.9447    9.3735   27.9046 C   0  0  0  0  0  0  0  0  0  0  0  0
    6.3044   10.0826   27.9526 C   0  0  0  0  0  0  0  0  0  0  0  0
    7.7588    9.5526   24.8329 N   0  0  0  0  0  0  0  0  0  0  0  0
    8.7604   10.0047   24.0536 N   0  0  0  0  0  0  0  0  0  0  0  0
    9.5570    9.0575   23.2910 C   0  0  0  0  0  0  0  0  0  0  0  0
  2  1  1  1
  2  3  1  0
  3  4  3  0
  2  5  1  0
  5  6  2  0
  5  7  1  0
  7  8  1  0
  8  9  2  0
  9 10  1  0
 10 11  1  0
 11 12  1  0
 12 13  1  0
 13 14  1  0
 10 15  2  0
 15 16  1  0
 16 17  1  0
 16  8  1  0
 14 11  1  0
M  END
$$$$

     RDKit          3D

 17 18  0  0  0  0  0  0  0  0999 V2000
   10.4697   13.9395   21.1521 C   0  0  0  0  0  0  0  0  0  0  0  0
   11.2974   13.7112   22.3974 C   0  0  1  0  0  0  0  0  0  0  0  0
   11.8699   15.0149   22.7159 C   0  0  0  0  0  0  0  0  0  0  0  0
   12.2090   16.1045   22.9221 N   0  0  0  0  0  0  0  0  0  0  0  0
   10.3787   13.2335   23.5147 C   0  0  0  0  0  0  0  0  0  0  0  0
   10.1148   13.9072   24.5117 O   0  0  0  0  0  0  0  0  0  0  0  0
    9.8941   11.9534   23.2815 N   0  0  0  0  0  0  0  0  0  0  0  0
    8.9270   11.3403   24.0671 C   0  0  0  0  0  0  0  0  0  0  0  0
    7.9823   11.7843   24.9861 C   0  0  0  0  0  0  0  0  0  0  0  0
    7.3056   10.6173   25.4657 C   0  0  0  0  0  0  0  0  0  0  0  0
    6.1024   10.6113   26.5139 C   0  0  0  0  0  0  0  0  0  0  0  0
    5.0124    9.5366   26.3799 C   0  0  0  0  0  0  0  0  0  0  0  0
    4.9508    9.3799   27.8983 C   0  0  0  0  0  0  0  0  0  0  0  0
    6.3138   10.0824   27.9478 C   0  0  0  0  0  0  0  0  0  0  0  0
    7.7705    9.5375   24.8327 N   0  0  0  0  0  0  0  0  0  0  0  0
    8.7682    9.9824   24.0445 N   0  0  0  0  0  0  0  0  0  0  0  0
    9.5624    9.0309   23.2855 C   0  0  0  0  0  0  0  0  0  0  0  0
  2  1  1  6
  2  3  1  0
  3  4  3  0
  2  5  1  0
  5  6  2  0
  5  7  1  0
  7  8  1  0
  8  9  2  0
  9 10  1  0
 10 11  1  0
 11 12  1  0
 12 13  1  0
 13 14  1  0
 10 15  2  0
 15 16  1  0
 16 17  1  0
 16  8  1  0
 14 11  1  0
M  END
$$$$

     RDKit          3D

 25 25  0  0  0  0  0  0  0  0999 V2000
   11.7549   14.3206   18.7647 C   0  0  0  0  0  0  0  0  0  0  0  0
   12.3424   14.0255   20.1161 C   0  0  0  0  0  0  0  0  0  0  0  0
   11.2104   13.9574   21.1093 C   0  0  0  0  0  0  0  0  0  0  0  0
   11.7554   13.9930   22.5134 C   0  0  1  0  0  0  0  0  0  0  0  0
   11.9969   15.4044   22.7810 C   0  0  0  0  0  0  0  0  0  0  0  0
   12.0766   16.5549   22.8954 N   0  0  0  0  0  0  0  0  0  0  0  0
   10.7320   13.4360   23.4889 C   0  0  0  0  0  0  0  0  0  0  0  0
   10.3637   14.0299   24.5035 O   0  0  0  0  0  0  0  0  0  0  0  0
   10.3219   12.1606   23.1476 N   0  0  0  0  0  0  0  0  0  0  0  0
    9.3510   11.4287   23.8101 C   0  0  0  0  0  0  0  0  0  0  0  0
    8.3687   11.8458   24.6815 C   0  0  0  0  0  0  0  0  0  0  0  0
    7.6924   10.7185   25.0857 N   0  0  0  0  0  0  0  0  0  0  0  0
    6.3295   10.7624   25.5918 C   0  0  0  0  0  0  0  0  0  0  0  0
    6.0046   10.1302   26.9137 C   0  0  0  0  0  0  0  0  0  0  0  0
    6.6296   10.2725   27.9510 O   0  0  0  0  0  0  0  0  0  0  0  0
    4.7762    9.5314   26.8252 O   0  0  0  0  0  0  0  0  0  0  0  0
    4.1693    8.8755   27.9652 C   0  0  0  0  0  0  0  0  0  0  0  0
    3.0844    8.0022   27.3883 C   0  0  0  0  0  0  0  0  0  0  0  0
    5.1133    8.0054   28.7412 C   0  0  0  0  0  0  0  0  0  0  0  0
    3.5096    9.8672   28.8942 C   0  0  0  0  0  0  0  0  0  0  0  0
    8.1322    9.6138   24.4518 N   0  0  0  0  0  0  0  0  0  0  0  0
    9.1716   10.0305   23.6991 C   0  0  0  0  0  0  0  0  0  0  0  0
   10.0036    9.1597   22.8190 C   0  0  0  0  0  0  0  0  0  0  0  0
    9.3214    8.2304   22.1276 F   0  0  0  0  0  0  0  0  0  0  0  0
   11.0698    8.5959   23.4156 F   0  0  0  0  0  0  0  0  0  0  0  0
  1  2  1  0
  2  3  1  0
  4  3  1  6
  4  5  1  0
  5  6  3  0
  4  7  1  0
  7  8  2  0
  7  9  1  0
  9 10  1  0
 10 11  2  0
 11 12  1  0
 12 13  1  0
 13 14  1  0
 14 15  2  0
 14 16  1  0
 16 17  1  0
 17 18  1  0
 17 19  1  0
 17 20  1  0
 12 21  1  0
 21 22  2  0
 22 23  1  0
 23 24  1  0
 23 25  1  0
 22 10  1  0
M  END
$$$$

     RDKit          3D

 26 26  0  0  0  0  0  0  0  0999 V2000
   11.3753    8.2239   23.1097 C   0  0  0  0  0  0  0  0  0  0  0  0
   10.8373    9.4835   23.4447 O   0  0  0  0  0  0  0  0  0  0  0  0
    9.5076    9.4285   23.2644 C   0  0  0  0  0  0  0  0  0  0  0  0
    8.8934    8.5278   22.7252 O   0  0  0  0  0  0  0  0  0  0  0  0
    8.8379   10.5822   23.7702 C   0  0  0  0  0  0  0  0  0  0  0  0
    7.7322   10.6529   24.6125 C   0  0  0  0  0  0  0  0  0  0  0  0
    7.1275    9.6527   25.2519 O   0  0  0  0  0  0  0  0  0  0  0  0
    5.9879   10.1070   25.9495 C   0  0  0  0  0  0  0  0  0  0  0  0
    6.3864   10.4202   27.3539 C   0  0  0  0  0  0  0  0  0  0  0  0
    7.0770   11.6580   27.3789 O   0  0  0  0  0  0  0  0  0  0  0  0
    7.2020   11.8639   24.7078 N   0  0  0  0  0  0  0  0  0  0  0  0
    8.0478   12.6073   24.0251 N   0  0  0  0  0  0  0  0  0  0  0  0
    7.6240   13.9688   23.8064 C   0  0  0  0  0  0  0  0  0  0  0  0
    9.0852   11.9019   23.4831 C   0  0  0  0  0  0  0  0  0  0  0  0
   10.1221   12.4260   22.7624 N   0  0  0  0  0  0  0  0  0  0  0  0
   10.5751   13.6770   23.0666 C   0  0  0  0  0  0  0  0  0  0  0  0
   10.0937   14.3692   23.9690 O   0  0  0  0  0  0  0  0  0  0  0  0
   11.6992   14.2046   22.2320 C   0  0  2  0  0  0  0  0  0  0  0  0
   12.4001   13.1502   21.5671 N   0  0  0  0  0  0  0  0  0  0  0  0
   12.6514   14.9707   23.1046 C   0  0  2  0  0  0  0  0  0  0  0  0
   11.9694   16.2361   23.5048 C   0  0  0  0  0  0  0  0  0  0  0  0
   13.6843   15.4340   22.2560 O   0  0  0  0  0  0  0  0  0  0  0  0
   13.1259   14.1368   24.3115 C   0  0  0  0  0  0  0  0  0  0  0  0
   13.6557   12.9453   23.9513 F   0  0  0  0  0  0  0  0  0  0  0  0
   14.0352   14.7118   25.1041 F   0  0  0  0  0  0  0  0  0  0  0  0
   12.0977   13.8390   25.1414 F   0  0  0  0  0  0  0  0  0  0  0  0
  1  2  1  0
  2  3  1  0
  3  4  2  0
  3  5  1  0
  5  6  1  0
  6  7  1  0
  7  8  1  0
  8  9  1  0
  9 10  1  0
  6 11  2  0
 11 12  1  0
 12 13  1  0
 12 14  1  0
 14 15  1  0
 15 16  1  0
 16 17  2  0
 16 18  1  0
 18 19  1  1
 18 20  1  0
 20 21  1  1
 20 22  1  0
 20 23  1  0
 23 24  1  0
 23 25  1  0
 23 26  1  0
 14  5  2  0
M  END
$$$$

     RDKit          3D

 26 26  0  0  0  0  0  0  0  0999 V2000
   11.3370    8.2518   23.0478 C   0  0  0  0  0  0  0  0  0  0  0  0
   10.7881    9.5201   23.3239 O   0  0  0  0  0  0  0  0  0  0  0  0
    9.4503    9.4144   23.2926 C   0  0  0  0  0  0  0  0  0  0  0  0
    8.8159    8.4861   22.8303 O   0  0  0  0  0  0  0  0  0  0  0  0
    8.7999   10.5711   23.8100 C   0  0  0  0  0  0  0  0  0  0  0  0
    7.6933   10.6693   24.6466 C   0  0  0  0  0  0  0  0  0  0  0  0
    7.0451    9.6785   25.2580 O   0  0  0  0  0  0  0  0  0  0  0  0
    5.9394   10.1632   25.9878 C   0  0  0  0  0  0  0  0  0  0  0  0
    6.3794   10.4122   27.3923 C   0  0  0  0  0  0  0  0  0  0  0  0
    7.0650   11.6516   27.4475 O   0  0  0  0  0  0  0  0  0  0  0  0
    7.2064   11.8976   24.7542 N   0  0  0  0  0  0  0  0  0  0  0  0
    8.0829   12.6208   24.0840 N   0  0  0  0  0  0  0  0  0  0  0  0
    7.7238   14.0055   23.9004 C   0  0  0  0  0  0  0  0  0  0  0  0
    9.0827   11.8806   23.5205 C   0  0  0  0  0  0  0  0  0  0  0  0
   10.1239   12.3519   22.7729 N   0  0  0  0  0  0  0  0  0  0  0  0
   10.6213   13.5917   23.0428 C   0  0  0  0  0  0  0  0  0  0  0  0
   10.2298   14.3115   23.9607 O   0  0  0  0  0  0  0  0  0  0  0  0
   11.7186   13.9766   22.1080 C   0  0  1  0  0  0  0  0  0  0  0  0
   11.0854   14.6009   20.9508 N   0  0  0  0  0  0  0  0  0  0  0  0
   12.6712   14.8783   22.8686 C   0  0  2  0  0  0  0  0  0  0  0  0
   12.0408   16.1651   23.3142 C   0  0  0  0  0  0  0  0  0  0  0  0
   13.6460   15.3264   21.9524 O   0  0  0  0  0  0  0  0  0  0  0  0
   13.2277   14.0596   24.0480 C   0  0  0  0  0  0  0  0  0  0  0  0
   12.3639   14.0009   25.0861 F   0  0  0  0  0  0  0  0  0  0  0  0
   14.3926   14.4488   24.5669 F   0  0  0  0  0  0  0  0  0  0  0  0
   13.4338   12.7716   23.6728 F   0  0  0  0  0  0  0  0  0  0  0  0
  1  2  1  0
  2  3  1  0
  3  4  2  0
  3  5  1  0
  5  6  1  0
  6  7  1  0
  7  8  1  0
  8  9  1  0
  9 10  1  0
  6 11  2  0
 11 12  1  0
 12 13  1  0
 12 14  1  0
 14 15  1  0
 15 16  1  0
 16 17  2  0
 16 18  1  0
 18 19  1  6
 18 20  1  0
 20 21  1  1
 20 22  1  0
 20 23  1  0
 23 24  1  0
 23 25  1  0
 23 26  1  0
 14  5  2  0
M  END
$$$$

     RDKit          3D

 26 26  0  0  0  0  0  0  0  0999 V2000
   10.9242    8.4010   22.6640 C   0  0  0  0  0  0  0  0  0  0  0  0
   10.0807    9.5240   22.6171 O   0  0  0  0  0  0  0  0  0  0  0  0
    9.1508    9.3722   23.5847 C   0  0  0  0  0  0  0  0  0  0  0  0
    8.8671    8.3439   24.1581 O   0  0  0  0  0  0  0  0  0  0  0  0
    8.5308   10.5888   23.9807 C   0  0  0  0  0  0  0  0  0  0  0  0
    7.4086   10.8210   24.7755 C   0  0  0  0  0  0  0  0  0  0  0  0
    6.4968    9.9597   25.2312 O   0  0  0  0  0  0  0  0  0  0  0  0
    6.5555    9.9442   26.6285 C   0  0  0  0  0  0  0  0  0  0  0  0
    5.9852   11.1898   27.2115 C   0  0  0  0  0  0  0  0  0  0  0  0
    7.0078   11.7513   28.0145 O   0  0  0  0  0  0  0  0  0  0  0  0
    7.0972   12.1029   24.9255 N   0  0  0  0  0  0  0  0  0  0  0  0
    8.0904   12.7098   24.2969 N   0  0  0  0  0  0  0  0  0  0  0  0
    8.0320   14.1465   24.2298 C   0  0  0  0  0  0  0  0  0  0  0  0
    8.9644   11.8509   23.7101 C   0  0  0  0  0  0  0  0  0  0  0  0
   10.0685   12.1917   23.0013 N   0  0  0  0  0  0  0  0  0  0  0  0
   10.7944   13.2648   23.4214 C   0  0  0  0  0  0  0  0  0  0  0  0
   10.7478   13.7371   24.5553 O   0  0  0  0  0  0  0  0  0  0  0  0
   11.5138   13.8365   22.2590 C   0  0  1  0  0  0  0  0  0  0  0  0
   10.4827   14.4416   21.4104 N   0  0  0  0  0  0  0  0  0  0  0  0
   12.5566   14.7850   22.7652 C   0  0  1  0  0  0  0  0  0  0  0  0
   12.0168   15.8800   23.6469 C   0  0  0  0  0  0  0  0  0  0  0  0
   13.4798   14.0654   23.5670 O   0  0  0  0  0  0  0  0  0  0  0  0
   13.1289   15.4312   21.5483 C   0  0  0  0  0  0  0  0  0  0  0  0
   13.1676   14.6150   20.4911 F   0  0  0  0  0  0  0  0  0  0  0  0
   14.3156   15.9852   21.7463 F   0  0  0  0  0  0  0  0  0  0  0  0
   12.2977   16.4541   21.2430 F   0  0  0  0  0  0  0  0  0  0  0  0
  1  2  1  0
  2  3  1  0
  3  4  2  0
  3  5  1  0
  5  6  1  0
  6  7  1  0
  7  8  1  0
  8  9  1  0
  9 10  1  0
  6 11  2  0
 11 12  1  0
 12 13  1  0
 12 14  1  0
 14 15  1  0
 15 16  1  0
 16 17  2  0
 16 18  1  0
 18 19  1  6
 18 20  1  0
 20 21  1  1
 20 22  1  0
 20 23  1  0
 23 24  1  0
 23 25  1  0
 23 26  1  0
 14  5  2  0
M  END
$$$$

     RDKit          3D

 26 26  0  0  0  0  0  0  0  0999 V2000
   11.3753    8.2239   23.1097 C   0  0  0  0  0  0  0  0  0  0  0  0
   10.8373    9.4835   23.4447 O   0  0  0  0  0  0  0  0  0  0  0  0
    9.5076    9.4285   23.2644 C   0  0  0  0  0  0  0  0  0  0  0  0
    8.8934    8.5278   22.7252 O   0  0  0  0  0  0  0  0  0  0  0  0
    8.8379   10.5822   23.7702 C   0  0  0  0  0  0  0  0  0  0  0  0
    7.7322   10.6529   24.6125 C   0  0  0  0  0  0  0  0  0  0  0  0
    7.1275    9.6527   25.2519 O   0  0  0  0  0  0  0  0  0  0  0  0
    5.9879   10.1070   25.9495 C   0  0  0  0  0  0  0  0  0  0  0  0
    6.3864   10.4202   27.3539 C   0  0  0  0  0  0  0  0  0  0  0  0
    7.0770   11.6580   27.3789 O   0  0  0  0  0  0  0  0  0  0  0  0
    7.2020   11.8639   24.7078 N   0  0  0  0  0  0  0  0  0  0  0  0
    8.0478   12.6073   24.0251 N   0  0  0  0  0  0  0  0  0  0  0  0
    7.6240   13.9688   23.8064 C   0  0  0  0  0  0  0  0  0  0  0  0
    9.0852   11.9019   23.4831 C   0  0  0  0  0  0  0  0  0  0  0  0
   10.1221   12.4260   22.7624 N   0  0  0  0  0  0  0  0  0  0  0  0
   10.5751   13.6770   23.0666 C   0  0  0  0  0  0  0  0  0  0  0  0
   10.0937   14.3692   23.9690 O   0  0  0  0  0  0  0  0  0  0  0  0
   11.6992   14.2046   22.2320 C   0  0  2  0  0  0  0  0  0  0  0  0
   12.4001   13.1502   21.5671 N   0  0  0  0  0  0  0  0  0  0  0  0
   12.6514   14.9707   23.1046 C   0  0  2  0  0  0  0  0  0  0  0  0
   11.9694   16.2361   23.5048 C   0  0  0  0  0  0  0  0  0  0  0  0
   13.6843   15.4340   22.2560 O   0  0  0  0  0  0  0  0  0  0  0  0
   13.1259   14.1368   24.3115 C   0  0  0  0  0  0  0  0  0  0  0  0
   13.6557   12.9453   23.9513 F   0  0  0  0  0  0  0  0  0  0  0  0
   14.0352   14.7118   25.1041 F   0  0  0  0  0  0  0  0  0  0  0  0
   12.0977   13.8390   25.1414 F   0  0  0  0  0  0  0  0  0  0  0  0
  1  2  1  0
  2  3  1  0
  3  4  2  0
  3  5  1  0
  5  6  1  0
  6  7  1  0
  7  8  1  0
  8  9  1  0
  9 10  1  0
  6 11  2  0
 11 12  1  0
 12 13  1  0
 12 14  1  0
 14 15  1  0
 15 16  1  0
 16 17  2  0
 16 18  1  0
 18 19  1  1
 18 20  1  0
 20 21  1  1
 20 22  1  0
 20 23  1  0
 23 24  1  0
 23 25  1  0
 23 26  1  0
 14  5  2  0
M  END
$$$$

     RDKit          3D

 26 26  0  0  0  0  0  0  0  0999 V2000
   11.3370    8.2518   23.0478 C   0  0  0  0  0  0  0  0  0  0  0  0
   10.7881    9.5201   23.3239 O   0  0  0  0  0  0  0  0  0  0  0  0
    9.4503    9.4144   23.2926 C   0  0  0  0  0  0  0  0  0  0  0  0
    8.8159    8.4861   22.8303 O   0  0  0  0  0  0  0  0  0  0  0  0
    8.7999   10.5711   23.8100 C   0  0  0  0  0  0  0  0  0  0  0  0
    7.6933   10.6693   24.6466 C   0  0  0  0  0  0  0  0  0  0  0  0
    7.0451    9.6785   25.2580 O   0  0  0  0  0  0  0  0  0  0  0  0
    5.9394   10.1632   25.9878 C   0  0  0  0  0  0  0  0  0  0  0  0
    6.3794   10.4122   27.3923 C   0  0  0  0  0  0  0  0  0  0  0  0
    7.0650   11.6516   27.4475 O   0  0  0  0  0  0  0  0  0  0  0  0
    7.2064   11.8976   24.7542 N   0  0  0  0  0  0  0  0  0  0  0  0
    8.0829   12.6208   24.0840 N   0  0  0  0  0  0  0  0  0  0  0  0
    7.7238   14.0055   23.9004 C   0  0  0  0  0  0  0  0  0  0  0  0
    9.0827   11.8806   23.5205 C   0  0  0  0  0  0  0  0  0  0  0  0
   10.1239   12.3519   22.7729 N   0  0  0  0  0  0  0  0  0  0  0  0
   10.6213   13.5917   23.0428 C   0  0  0  0  0  0  0  0  0  0  0  0
   10.2298   14.3115   23.9607 O   0  0  0  0  0  0  0  0  0  0  0  0
   11.7186   13.9766   22.1080 C   0  0  1  0  0  0  0  0  0  0  0  0
   11.0854   14.6009   20.9508 N   0  0  0  0  0  0  0  0  0  0  0  0
   12.6712   14.8783   22.8686 C   0  0  2  0  0  0  0  0  0  0  0  0
   12.0408   16.1651   23.3142 C   0  0  0  0  0  0  0  0  0  0  0  0
   13.6460   15.3264   21.9524 O   0  0  0  0  0  0  0  0  0  0  0  0
   13.2277   14.0596   24.0480 C   0  0  0  0  0  0  0  0  0  0  0  0
   12.3639   14.0009   25.0861 F   0  0  0  0  0  0  0  0  0  0  0  0
   14.3926   14.4488   24.5669 F   0  0  0  0  0  0  0  0  0  0  0  0
   13.4338   12.7716   23.6728 F   0  0  0  0  0  0  0  0  0  0  0  0
  1  2  1  0
  2  3  1  0
  3  4  2  0
  3  5  1  0
  5  6  1  0
  6  7  1  0
  7  8  1  0
  8  9  1  0
  9 10  1  0
  6 11  2  0
 11 12  1  0
 12 13  1  0
 12 14  1  0
 14 15  1  0
 15 16  1  0
 16 17  2  0
 16 18  1  0
 18 19  1  6
 18 20  1  0
 20 21  1  1
 20 22  1  0
 20 23  1  0
 23 24  1  0
 23 25  1  0
 23 26  1  0
 14  5  2  0
M  END
$$$$

     RDKit          3D

 26 26  0  0  0  0  0  0  0  0999 V2000
   10.9242    8.4010   22.6640 C   0  0  0  0  0  0  0  0  0  0  0  0
   10.0807    9.5240   22.6171 O   0  0  0  0  0  0  0  0  0  0  0  0
    9.1508    9.3722   23.5847 C   0  0  0  0  0  0  0  0  0  0  0  0
    8.8671    8.3439   24.1581 O   0  0  0  0  0  0  0  0  0  0  0  0
    8.5308   10.5888   23.9807 C   0  0  0  0  0  0  0  0  0  0  0  0
    7.4086   10.8210   24.7755 C   0  0  0  0  0  0  0  0  0  0  0  0
    6.4968    9.9597   25.2312 O   0  0  0  0  0  0  0  0  0  0  0  0
    6.5555    9.9442   26.6285 C   0  0  0  0  0  0  0  0  0  0  0  0
    5.9852   11.1898   27.2115 C   0  0  0  0  0  0  0  0  0  0  0  0
    7.0078   11.7513   28.0145 O   0  0  0  0  0  0  0  0  0  0  0  0
    7.0972   12.1029   24.9255 N   0  0  0  0  0  0  0  0  0  0  0  0
    8.0904   12.7098   24.2969 N   0  0  0  0  0  0  0  0  0  0  0  0
    8.0320   14.1465   24.2298 C   0  0  0  0  0  0  0  0  0  0  0  0
    8.9644   11.8509   23.7101 C   0  0  0  0  0  0  0  0  0  0  0  0
   10.0685   12.1917   23.0013 N   0  0  0  0  0  0  0  0  0  0  0  0
   10.7944   13.2648   23.4214 C   0  0  0  0  0  0  0  0  0  0  0  0
   10.7478   13.7371   24.5553 O   0  0  0  0  0  0  0  0  0  0  0  0
   11.5138   13.8365   22.2590 C   0  0  1  0  0  0  0  0  0  0  0  0
   10.4827   14.4416   21.4104 N   0  0  0  0  0  0  0  0  0  0  0  0
   12.5566   14.7850   22.7652 C   0  0  1  0  0  0  0  0  0  0  0  0
   12.0168   15.8800   23.6469 C   0  0  0  0  0  0  0  0  0  0  0  0
   13.4798   14.0654   23.5670 O   0  0  0  0  0  0  0  0  0  0  0  0
   13.1289   15.4312   21.5483 C   0  0  0  0  0  0  0  0  0  0  0  0
   13.1676   14.6150   20.4911 F   0  0  0  0  0  0  0  0  0  0  0  0
   14.3156   15.9852   21.7463 F   0  0  0  0  0  0  0  0  0  0  0  0
   12.2977   16.4541   21.2430 F   0  0  0  0  0  0  0  0  0  0  0  0
  1  2  1  0
  2  3  1  0
  3  4  2  0
  3  5  1  0
  5  6  1  0
  6  7  1  0
  7  8  1  0
  8  9  1  0
  9 10  1  0
  6 11  2  0
 11 12  1  0
 12 13  1  0
 12 14  1  0
 14 15  1  0
 15 16  1  0
 16 17  2  0
 16 18  1  0
 18 19  1  6
 18 20  1  0
 20 21  1  1
 20 22  1  0
 20 23  1  0
 23 24  1  0
 23 25  1  0
 23 26  1  0
 14  5  2  0
M  END
$$$$

     RDKit          3D

 26 26  0  0  0  0  0  0  0  0999 V2000
   11.3753    8.2239   23.1097 C   0  0  0  0  0  0  0  0  0  0  0  0
   10.8373    9.4835   23.4447 O   0  0  0  0  0  0  0  0  0  0  0  0
    9.5076    9.4285   23.2644 C   0  0  0  0  0  0  0  0  0  0  0  0
    8.8934    8.5278   22.7252 O   0  0  0  0  0  0  0  0  0  0  0  0
    8.8379   10.5822   23.7702 C   0  0  0  0  0  0  0  0  0  0  0  0
    7.7322   10.6529   24.6125 C   0  0  0  0  0  0  0  0  0  0  0  0
    7.1275    9.6527   25.2519 O   0  0  0  0  0  0  0  0  0  0  0  0
    5.9879   10.1070   25.9495 C   0  0  0  0  0  0  0  0  0  0  0  0
    6.3864   10.4202   27.3539 C   0  0  0  0  0  0  0  0  0  0  0  0
    7.0770   11.6580   27.3789 O   0  0  0  0  0  0  0  0  0  0  0  0
    7.2020   11.8639   24.7078 N   0  0  0  0  0  0  0  0  0  0  0  0
    8.0478   12.6073   24.0251 N   0  0  0  0  0  0  0  0  0  0  0  0
    7.6240   13.9688   23.8064 C   0  0  0  0  0  0  0  0  0  0  0  0
    9.0852   11.9019   23.4831 C   0  0  0  0  0  0  0  0  0  0  0  0
   10.1221   12.4260   22.7624 N   0  0  0  0  0  0  0  0  0  0  0  0
   10.5751   13.6770   23.0666 C   0  0  0  0  0  0  0  0  0  0  0  0
   10.0937   14.3692   23.9690 O   0  0  0  0  0  0  0  0  0  0  0  0
   11.6992   14.2046   22.2320 C   0  0  2  0  0  0  0  0  0  0  0  0
   12.4001   13.1502   21.5671 N   0  0  0  0  0  0  0  0  0  0  0  0
   12.6514   14.9707   23.1046 C   0  0  2  0  0  0  0  0  0  0  0  0
   11.9694   16.2361   23.5048 C   0  0  0  0  0  0  0  0  0  0  0  0
   13.6843   15.4340   22.2560 O   0  0  0  0  0  0  0  0  0  0  0  0
   13.1259   14.1368   24.3115 C   0  0  0  0  0  0  0  0  0  0  0  0
   13.6557   12.9453   23.9513 F   0  0  0  0  0  0  0  0  0  0  0  0
   14.0352   14.7118   25.1041 F   0  0  0  0  0  0  0  0  0  0  0  0
   12.0977   13.8390   25.1414 F   0  0  0  0  0  0  0  0  0  0  0  0
  1  2  1  0
  2  3  1  0
  3  4  2  0
  3  5  1  0
  5  6  1  0
  6  7  1  0
  7  8  1  0
  8  9  1  0
  9 10  1  0
  6 11  2  0
 11 12  1  0
 12 13  1  0
 12 14  1  0
 14 15  1  0
 15 16  1  0
 16 17  2  0
 16 18  1  0
 18 19  1  1
 18 20  1  0
 20 21  1  1
 20 22  1  0
 20 23  1  0
 23 24  1  0
 23 25  1  0
 23 26  1  0
 14  5  2  0
M  END
$$$$

     RDKit          3D

 26 26  0  0  0  0  0  0  0  0999 V2000
   11.3370    8.2518   23.0478 C   0  0  0  0  0  0  0  0  0  0  0  0
   10.7881    9.5201   23.3239 O   0  0  0  0  0  0  0  0  0  0  0  0
    9.4503    9.4144   23.2926 C   0  0  0  0  0  0  0  0  0  0  0  0
    8.8159    8.4861   22.8303 O   0  0  0  0  0  0  0  0  0  0  0  0
    8.7999   10.5711   23.8100 C   0  0  0  0  0  0  0  0  0  0  0  0
    7.6933   10.6693   24.6466 C   0  0  0  0  0  0  0  0  0  0  0  0
    7.0451    9.6785   25.2580 O   0  0  0  0  0  0  0  0  0  0  0  0
    5.9394   10.1632   25.9878 C   0  0  0  0  0  0  0  0  0  0  0  0
    6.3794   10.4122   27.3923 C   0  0  0  0  0  0  0  0  0  0  0  0
    7.0650   11.6516   27.4475 O   0  0  0  0  0  0  0  0  0  0  0  0
    7.2064   11.8976   24.7542 N   0  0  0  0  0  0  0  0  0  0  0  0
    8.0829   12.6208   24.0840 N   0  0  0  0  0  0  0  0  0  0  0  0
    7.7238   14.0055   23.9004 C   0  0  0  0  0  0  0  0  0  0  0  0
    9.0827   11.8806   23.5205 C   0  0  0  0  0  0  0  0  0  0  0  0
   10.1239   12.3519   22.7729 N   0  0  0  0  0  0  0  0  0  0  0  0
   10.6213   13.5917   23.0428 C   0  0  0  0  0  0  0  0  0  0  0  0
   10.2298   14.3115   23.9607 O   0  0  0  0  0  0  0  0  0  0  0  0
   11.7186   13.9766   22.1080 C   0  0  1  0  0  0  0  0  0  0  0  0
   11.0854   14.6009   20.9508 N   0  0  0  0  0  0  0  0  0  0  0  0
   12.6712   14.8783   22.8686 C   0  0  2  0  0  0  0  0  0  0  0  0
   12.0408   16.1651   23.3142 C   0  0  0  0  0  0  0  0  0  0  0  0
   13.6460   15.3264   21.9524 O   0  0  0  0  0  0  0  0  0  0  0  0
   13.2277   14.0596   24.0480 C   0  0  0  0  0  0  0  0  0  0  0  0
   12.3639   14.0009   25.0861 F   0  0  0  0  0  0  0  0  0  0  0  0
   14.3926   14.4488   24.5669 F   0  0  0  0  0  0  0  0  0  0  0  0
   13.4338   12.7716   23.6728 F   0  0  0  0  0  0  0  0  0  0  0  0
  1  2  1  0
  2  3  1  0
  3  4  2  0
  3  5  1  0
  5  6  1  0
  6  7  1  0
  7  8  1  0
  8  9  1  0
  9 10  1  0
  6 11  2  0
 11 12  1  0
 12 13  1  0
 12 14  1  0
 14 15  1  0
 15 16  1  0
 16 17  2  0
 16 18  1  0
 18 19  1  6
 18 20  1  0
 20 21  1  1
 20 22  1  0
 20 23  1  0
 23 24  1  0
 23 25  1  0
 23 26  1  0
 14  5  2  0
M  END
$$$$

     RDKit          3D

 26 26  0  0  0  0  0  0  0  0999 V2000
   10.9242    8.4010   22.6640 C   0  0  0  0  0  0  0  0  0  0  0  0
   10.0807    9.5240   22.6171 O   0  0  0  0  0  0  0  0  0  0  0  0
    9.1508    9.3722   23.5847 C   0  0  0  0  0  0  0  0  0  0  0  0
    8.8671    8.3439   24.1581 O   0  0  0  0  0  0  0  0  0  0  0  0
    8.5308   10.5888   23.9807 C   0  0  0  0  0  0  0  0  0  0  0  0
    7.4086   10.8210   24.7755 C   0  0  0  0  0  0  0  0  0  0  0  0
    6.4968    9.9597   25.2312 O   0  0  0  0  0  0  0  0  0  0  0  0
    6.5555    9.9442   26.6285 C   0  0  0  0  0  0  0  0  0  0  0  0
    5.9852   11.1898   27.2115 C   0  0  0  0  0  0  0  0  0  0  0  0
    7.0078   11.7513   28.0145 O   0  0  0  0  0  0  0  0  0  0  0  0
    7.0972   12.1029   24.9255 N   0  0  0  0  0  0  0  0  0  0  0  0
    8.0904   12.7098   24.2969 N   0  0  0  0  0  0  0  0  0  0  0  0
    8.0320   14.1465   24.2298 C   0  0  0  0  0  0  0  0  0  0  0  0
    8.9644   11.8509   23.7101 C   0  0  0  0  0  0  0  0  0  0  0  0
   10.0685   12.1917   23.0013 N   0  0  0  0  0  0  0  0  0  0  0  0
   10.7944   13.2648   23.4214 C   0  0  0  0  0  0  0  0  0  0  0  0
   10.7478   13.7371   24.5553 O   0  0  0  0  0  0  0  0  0  0  0  0
   11.5138   13.8365   22.2590 C   0  0  1  0  0  0  0  0  0  0  0  0
   10.4827   14.4416   21.4104 N   0  0  0  0  0  0  0  0  0  0  0  0
   12.5566   14.7850   22.7652 C   0  0  1  0  0  0  0  0  0  0  0  0
   12.0168   15.8800   23.6469 C   0  0  0  0  0  0  0  0  0  0  0  0
   13.4798   14.0654   23.5670 O   0  0  0  0  0  0  0  0  0  0  0  0
   13.1289   15.4312   21.5483 C   0  0  0  0  0  0  0  0  0  0  0  0
   13.1676   14.6150   20.4911 F   0  0  0  0  0  0  0  0  0  0  0  0
   14.3156   15.9852   21.7463 F   0  0  0  0  0  0  0  0  0  0  0  0
   12.2977   16.4541   21.2430 F   0  0  0  0  0  0  0  0  0  0  0  0
  1  2  1  0
  2  3  1  0
  3  4  2  0
  3  5  1  0
  5  6  1  0
  6  7  1  0
  7  8  1  0
  8  9  1  0
  9 10  1  0
  6 11  2  0
 11 12  1  0
 12 13  1  0
 12 14  1  0
 14 15  1  0
 15 16  1  0
 16 17  2  0
 16 18  1  0
 18 19  1  6
 18 20  1  0
 20 21  1  1
 20 22  1  0
 20 23  1  0
 23 24  1  0
 23 25  1  0
 23 26  1  0
 14  5  2  0
M  END
$$$$

     RDKit          3D

 26 26  0  0  0  0  0  0  0  0999 V2000
   11.3753    8.2239   23.1097 C   0  0  0  0  0  0  0  0  0  0  0  0
   10.8373    9.4835   23.4447 O   0  0  0  0  0  0  0  0  0  0  0  0
    9.5076    9.4285   23.2644 C   0  0  0  0  0  0  0  0  0  0  0  0
    8.8934    8.5278   22.7252 O   0  0  0  0  0  0  0  0  0  0  0  0
    8.8379   10.5822   23.7702 C   0  0  0  0  0  0  0  0  0  0  0  0
    7.7322   10.6529   24.6125 C   0  0  0  0  0  0  0  0  0  0  0  0
    7.1275    9.6527   25.2519 O   0  0  0  0  0  0  0  0  0  0  0  0
    5.9879   10.1070   25.9495 C   0  0  0  0  0  0  0  0  0  0  0  0
    6.3864   10.4202   27.3539 C   0  0  0  0  0  0  0  0  0  0  0  0
    7.0770   11.6580   27.3789 O   0  0  0  0  0  0  0  0  0  0  0  0
    7.2020   11.8639   24.7078 N   0  0  0  0  0  0  0  0  0  0  0  0
    8.0478   12.6073   24.0251 N   0  0  0  0  0  0  0  0  0  0  0  0
    7.6240   13.9688   23.8064 C   0  0  0  0  0  0  0  0  0  0  0  0
    9.0852   11.9019   23.4831 C   0  0  0  0  0  0  0  0  0  0  0  0
   10.1221   12.4260   22.7624 N   0  0  0  0  0  0  0  0  0  0  0  0
   10.5751   13.6770   23.0666 C   0  0  0  0  0  0  0  0  0  0  0  0
   10.0937   14.3692   23.9690 O   0  0  0  0  0  0  0  0  0  0  0  0
   11.6992   14.2046   22.2320 C   0  0  2  0  0  0  0  0  0  0  0  0
   12.4001   13.1502   21.5671 N   0  0  0  0  0  0  0  0  0  0  0  0
   12.6514   14.9707   23.1046 C   0  0  2  0  0  0  0  0  0  0  0  0
   11.9694   16.2361   23.5048 C   0  0  0  0  0  0  0  0  0  0  0  0
   13.6843   15.4340   22.2560 O   0  0  0  0  0  0  0  0  0  0  0  0
   13.1259   14.1368   24.3115 C   0  0  0  0  0  0  0  0  0  0  0  0
   13.6557   12.9453   23.9513 F   0  0  0  0  0  0  0  0  0  0  0  0
   14.0352   14.7118   25.1041 F   0  0  0  0  0  0  0  0  0  0  0  0
   12.0977   13.8390   25.1414 F   0  0  0  0  0  0  0  0  0  0  0  0
  1  2  1  0
  2  3  1  0
  3  4  2  0
  3  5  1  0
  5  6  1  0
  6  7  1  0
  7  8  1  0
  8  9  1  0
  9 10  1  0
  6 11  2  0
 11 12  1  0
 12 13  1  0
 12 14  1  0
 14 15  1  0
 15 16  1  0
 16 17  2  0
 16 18  1  0
 18 19  1  1
 18 20  1  0
 20 21  1  1
 20 22  1  0
 20 23  1  0
 23 24  1  0
 23 25  1  0
 23 26  1  0
 14  5  2  0
M  END
$$$$

     RDKit          3D

 26 26  0  0  0  0  0  0  0  0999 V2000
   11.3370    8.2518   23.0478 C   0  0  0  0  0  0  0  0  0  0  0  0
   10.7881    9.5201   23.3239 O   0  0  0  0  0  0  0  0  0  0  0  0
    9.4503    9.4144   23.2926 C   0  0  0  0  0  0  0  0  0  0  0  0
    8.8159    8.4861   22.8303 O   0  0  0  0  0  0  0  0  0  0  0  0
    8.7999   10.5711   23.8100 C   0  0  0  0  0  0  0  0  0  0  0  0
    7.6933   10.6693   24.6466 C   0  0  0  0  0  0  0  0  0  0  0  0
    7.0451    9.6785   25.2580 O   0  0  0  0  0  0  0  0  0  0  0  0
    5.9394   10.1632   25.9878 C   0  0  0  0  0  0  0  0  0  0  0  0
    6.3794   10.4122   27.3923 C   0  0  0  0  0  0  0  0  0  0  0  0
    7.0650   11.6516   27.4475 O   0  0  0  0  0  0  0  0  0  0  0  0
    7.2064   11.8976   24.7542 N   0  0  0  0  0  0  0  0  0  0  0  0
    8.0829   12.6208   24.0840 N   0  0  0  0  0  0  0  0  0  0  0  0
    7.7238   14.0055   23.9004 C   0  0  0  0  0  0  0  0  0  0  0  0
    9.0827   11.8806   23.5205 C   0  0  0  0  0  0  0  0  0  0  0  0
   10.1239   12.3519   22.7729 N   0  0  0  0  0  0  0  0  0  0  0  0
   10.6213   13.5917   23.0428 C   0  0  0  0  0  0  0  0  0  0  0  0
   10.2298   14.3115   23.9607 O   0  0  0  0  0  0  0  0  0  0  0  0
   11.7186   13.9766   22.1080 C   0  0  1  0  0  0  0  0  0  0  0  0
   11.0854   14.6009   20.9508 N   0  0  0  0  0  0  0  0  0  0  0  0
   12.6712   14.8783   22.8686 C   0  0  2  0  0  0  0  0  0  0  0  0
   12.0408   16.1651   23.3142 C   0  0  0  0  0  0  0  0  0  0  0  0
   13.6460   15.3264   21.9524 O   0  0  0  0  0  0  0  0  0  0  0  0
   13.2277   14.0596   24.0480 C   0  0  0  0  0  0  0  0  0  0  0  0
   12.3639   14.0009   25.0861 F   0  0  0  0  0  0  0  0  0  0  0  0
   14.3926   14.4488   24.5669 F   0  0  0  0  0  0  0  0  0  0  0  0
   13.4338   12.7716   23.6728 F   0  0  0  0  0  0  0  0  0  0  0  0
  1  2  1  0
  2  3  1  0
  3  4  2  0
  3  5  1  0
  5  6  1  0
  6  7  1  0
  7  8  1  0
  8  9  1  0
  9 10  1  0
  6 11  2  0
 11 12  1  0
 12 13  1  0
 12 14  1  0
 14 15  1  0
 15 16  1  0
 16 17  2  0
 16 18  1  0
 18 19  1  6
 18 20  1  0
 20 21  1  1
 20 22  1  0
 20 23  1  0
 23 24  1  0
 23 25  1  0
 23 26  1  0
 14  5  2  0
M  END
$$$$

     RDKit          3D

 26 26  0  0  0  0  0  0  0  0999 V2000
   10.9242    8.4010   22.6640 C   0  0  0  0  0  0  0  0  0  0  0  0
   10.0807    9.5240   22.6171 O   0  0  0  0  0  0  0  0  0  0  0  0
    9.1508    9.3722   23.5847 C   0  0  0  0  0  0  0  0  0  0  0  0
    8.8671    8.3439   24.1581 O   0  0  0  0  0  0  0  0  0  0  0  0
    8.5308   10.5888   23.9807 C   0  0  0  0  0  0  0  0  0  0  0  0
    7.4086   10.8210   24.7755 C   0  0  0  0  0  0  0  0  0  0  0  0
    6.4968    9.9597   25.2312 O   0  0  0  0  0  0  0  0  0  0  0  0
    6.5555    9.9442   26.6285 C   0  0  0  0  0  0  0  0  0  0  0  0
    5.9852   11.1898   27.2115 C   0  0  0  0  0  0  0  0  0  0  0  0
    7.0078   11.7513   28.0145 O   0  0  0  0  0  0  0  0  0  0  0  0
    7.0972   12.1029   24.9255 N   0  0  0  0  0  0  0  0  0  0  0  0
    8.0904   12.7098   24.2969 N   0  0  0  0  0  0  0  0  0  0  0  0
    8.0320   14.1465   24.2298 C   0  0  0  0  0  0  0  0  0  0  0  0
    8.9644   11.8509   23.7101 C   0  0  0  0  0  0  0  0  0  0  0  0
   10.0685   12.1917   23.0013 N   0  0  0  0  0  0  0  0  0  0  0  0
   10.7944   13.2648   23.4214 C   0  0  0  0  0  0  0  0  0  0  0  0
   10.7478   13.7371   24.5553 O   0  0  0  0  0  0  0  0  0  0  0  0
   11.5138   13.8365   22.2590 C   0  0  1  0  0  0  0  0  0  0  0  0
   10.4827   14.4416   21.4104 N   0  0  0  0  0  0  0  0  0  0  0  0
   12.5566   14.7850   22.7652 C   0  0  1  0  0  0  0  0  0  0  0  0
   12.0168   15.8800   23.6469 C   0  0  0  0  0  0  0  0  0  0  0  0
   13.4798   14.0654   23.5670 O   0  0  0  0  0  0  0  0  0  0  0  0
   13.1289   15.4312   21.5483 C   0  0  0  0  0  0  0  0  0  0  0  0
   13.1676   14.6150   20.4911 F   0  0  0  0  0  0  0  0  0  0  0  0
   14.3156   15.9852   21.7463 F   0  0  0  0  0  0  0  0  0  0  0  0
   12.2977   16.4541   21.2430 F   0  0  0  0  0  0  0  0  0  0  0  0
  1  2  1  0
  2  3  1  0
  3  4  2  0
  3  5  1  0
  5  6  1  0
  6  7  1  0
  7  8  1  0
  8  9  1  0
  9 10  1  0
  6 11  2  0
 11 12  1  0
 12 13  1  0
 12 14  1  0
 14 15  1  0
 15 16  1  0
 16 17  2  0
 16 18  1  0
 18 19  1  6
 18 20  1  0
 20 21  1  1
 20 22  1  0
 20 23  1  0
 23 24  1  0
 23 25  1  0
 23 26  1  0
 14  5  2  0
M  END
$$$$

     RDKit          3D

 19 19  0  0  0  0  0  0  0  0999 V2000
    4.9705    9.9054   27.5802 C   0  0  0  0  0  0  0  0  0  0  0  0
    6.3542   10.2483   27.0882 C   0  0  0  0  0  0  0  0  0  0  0  0
    6.3008   10.9077   25.7384 C   0  0  0  0  0  0  0  0  0  0  0  0
    7.5706   10.8957   24.9829 C   0  0  0  0  0  0  0  0  0  0  0  0
    8.2959   12.0169   24.5353 C   0  0  0  0  0  0  0  0  0  0  0  0
    9.3068   11.5111   23.7477 C   0  0  0  0  0  0  0  0  0  0  0  0
   10.3164   12.1418   23.0520 N   0  0  0  0  0  0  0  0  0  0  0  0
   10.7069   13.4450   23.3617 C   0  0  0  0  0  0  0  0  0  0  0  0
   10.3463   14.0438   24.3769 O   0  0  0  0  0  0  0  0  0  0  0  0
   11.5610   14.0837   22.2849 C   0  0  1  0  0  0  0  0  0  0  0  0
   12.5054   13.0947   21.7023 C   0  0  0  0  0  0  0  0  0  0  0  0
   10.7116   14.5401   21.2462 O   0  0  0  0  0  0  0  0  0  0  0  0
   12.4182   15.1758   22.8630 C   0  0  0  0  0  0  0  0  0  0  0  0
   11.7194   16.2229   23.3382 F   0  0  0  0  0  0  0  0  0  0  0  0
   13.1795   14.6814   23.8700 F   0  0  0  0  0  0  0  0  0  0  0  0
   13.2569   15.6779   21.9289 F   0  0  0  0  0  0  0  0  0  0  0  0
    9.1362   10.1545   23.7612 N   0  0  0  0  0  0  0  0  0  0  0  0
    9.9500    9.1557   23.0941 C   0  0  0  0  0  0  0  0  0  0  0  0
    8.0870    9.7568   24.5106 N   0  0  0  0  0  0  0  0  0  0  0  0
  1  2  1  0
  2  3  1  0
  3  4  1  0
  4  5  1  0
  5  6  2  0
  6  7  1  0
  7  8  1  0
  8  9  2  0
  8 10  1  0
 10 11  1  6
 10 12  1  0
 10 13  1  0
 13 14  1  0
 13 15  1  0
 13 16  1  0
  6 17  1  0
 17 18  1  0
 17 19  1  0
 19  4  2  0
M  END
$$$$

     RDKit          3D

 18 18  0  0  0  0  0  0  0  0999 V2000
   10.7913   14.3227   20.9279 C   0  0  0  0  0  0  0  0  0  0  0  0
   11.6237   13.8957   22.1137 C   0  0  2  0  0  0  0  0  0  0  0  0
   10.7260   13.4033   23.2094 C   0  0  0  0  0  0  0  0  0  0  0  0
   10.4624   14.0451   24.2267 O   0  0  0  0  0  0  0  0  0  0  0  0
   10.2107   12.1549   22.9330 N   0  0  0  0  0  0  0  0  0  0  0  0
    9.1725   11.6135   23.6966 C   0  0  0  0  0  0  0  0  0  0  0  0
    8.2925   12.4743   24.3450 C   0  0  0  0  0  0  0  0  0  0  0  0
    7.3133   11.9669   25.1604 C   0  0  0  0  0  0  0  0  0  0  0  0
    6.4571   12.8810   25.8049 N   0  0  0  0  0  0  0  0  0  0  0  0
    7.1851   10.6320   25.3387 N   0  0  0  0  0  0  0  0  0  0  0  0
    8.0405    9.8099   24.6742 C   0  0  0  0  0  0  0  0  0  0  0  0
    9.0241   10.2467   23.8221 C   0  0  0  0  0  0  0  0  0  0  0  0
    9.7888    9.3248   23.0703 C   0  0  0  0  0  0  0  0  0  0  0  0
   10.3725    8.6439   22.3444 N   0  0  0  0  0  0  0  0  0  0  0  0
   12.5676   14.9697   22.5917 C   0  0  0  0  0  0  0  0  0  0  0  0
   11.9008   16.2180   23.0723 C   0  0  0  0  0  0  0  0  0  0  0  0
   13.4247   15.4233   21.4469 C   0  0  0  0  0  0  0  0  0  0  0  0
   13.3851   14.3994   23.7263 C   0  0  0  0  0  0  0  0  0  0  0  0
  2  1  1  6
  2  3  1  0
  3  4  2  0
  3  5  1  0
  5  6  1  0
  6  7  2  0
  7  8  1  0
  8  9  1  0
  8 10  2  0
 10 11  1  0
 11 12  2  0
 12 13  1  0
 13 14  3  0
  2 15  1  0
 15 16  1  0
 15 17  1  0
 15 18  1  0
 12  6  1  0
M  END
$$$$

     RDKit          3D

 18 18  0  0  0  0  0  0  0  0999 V2000
   10.7913   14.3227   20.9279 C   0  0  0  0  0  0  0  0  0  0  0  0
   11.6237   13.8957   22.1137 C   0  0  2  0  0  0  0  0  0  0  0  0
   10.7260   13.4033   23.2094 C   0  0  0  0  0  0  0  0  0  0  0  0
   10.4624   14.0451   24.2267 O   0  0  0  0  0  0  0  0  0  0  0  0
   10.2107   12.1549   22.9330 N   0  0  0  0  0  0  0  0  0  0  0  0
    9.1725   11.6135   23.6966 C   0  0  0  0  0  0  0  0  0  0  0  0
    8.2925   12.4743   24.3450 C   0  0  0  0  0  0  0  0  0  0  0  0
    7.3133   11.9669   25.1604 C   0  0  0  0  0  0  0  0  0  0  0  0
    6.4571   12.8810   25.8049 N   0  0  0  0  0  0  0  0  0  0  0  0
    7.1851   10.6320   25.3387 N   0  0  0  0  0  0  0  0  0  0  0  0
    8.0405    9.8099   24.6742 C   0  0  0  0  0  0  0  0  0  0  0  0
    9.0241   10.2467   23.8221 C   0  0  0  0  0  0  0  0  0  0  0  0
    9.7888    9.3248   23.0703 C   0  0  0  0  0  0  0  0  0  0  0  0
   10.3725    8.6439   22.3444 N   0  0  0  0  0  0  0  0  0  0  0  0
   12.5676   14.9697   22.5917 C   0  0  0  0  0  0  0  0  0  0  0  0
   11.9008   16.2180   23.0723 C   0  0  0  0  0  0  0  0  0  0  0  0
   13.4247   15.4233   21.4469 C   0  0  0  0  0  0  0  0  0  0  0  0
   13.3851   14.3994   23.7263 C   0  0  0  0  0  0  0  0  0  0  0  0
  2  1  1  6
  2  3  1  0
  3  4  2  0
  3  5  1  0
  5  6  1  0
  6  7  2  0
  7  8  1  0
  8  9  1  0
  8 10  2  0
 10 11  1  0
 11 12  2  0
 12 13  1  0
 13 14  3  0
  2 15  1  0
 15 16  1  0
 15 17  1  0
 15 18  1  0
 12  6  1  0
M  END
$$$$

     RDKit          3D

 24 24  0  0  0  0  0  0  0  0999 V2000
   10.0815    9.0868   21.9410 C   0  0  0  0  0  0  0  0  0  0  0  0
    9.8224    8.9697   23.4141 C   0  0  0  0  0  0  0  0  0  0  0  0
    8.9668   10.0320   23.9036 N   0  0  0  0  0  0  0  0  0  0  0  0
    7.9578    9.7168   24.7412 N   0  0  0  0  0  0  0  0  0  0  0  0
    7.4601   10.8939   25.1451 C   0  0  0  0  0  0  0  0  0  0  0  0
    6.2920   10.9694   26.0771 C   0  0  0  0  0  0  0  0  0  0  0  0
    5.4727   12.2239   25.8721 C   0  0  0  0  0  0  0  0  0  0  0  0
    6.6656   10.9677   27.5303 C   0  0  0  0  0  0  0  0  0  0  0  0
    5.3864    9.7802   25.9590 C   0  0  0  0  0  0  0  0  0  0  0  0
    8.1815   11.9616   24.5657 C   0  0  0  0  0  0  0  0  0  0  0  0
    9.1722   11.3782   23.8080 C   0  0  0  0  0  0  0  0  0  0  0  0
   10.2727   11.9028   23.1706 N   0  0  0  0  0  0  0  0  0  0  0  0
   10.6862   13.1960   23.4452 C   0  0  0  0  0  0  0  0  0  0  0  0
   10.0268   14.0306   24.0616 O   0  0  0  0  0  0  0  0  0  0  0  0
   12.1453   13.3547   23.1416 C   0  0  2  0  0  0  0  0  0  0  0  0
   12.7548   12.6406   24.3395 C   0  0  0  0  0  0  0  0  0  0  0  0
   14.3843   12.5253   24.9359 P   0  0  0  0  0  0  0  0  0  0  0  0
   14.8684   14.1825   24.8938 C   0  0  0  0  0  0  0  0  0  0  0  0
   14.6159   12.2697   26.6661 C   0  0  0  0  0  0  0  0  0  0  0  0
   15.3107   11.6302   24.1740 O   0  0  0  0  0  0  0  0  0  0  0  0
   12.4052   14.8348   23.0989 C   0  0  0  0  0  0  0  0  0  0  0  0
   12.4056   15.3231   24.3548 F   0  0  0  0  0  0  0  0  0  0  0  0
   11.4984   15.5313   22.3880 F   0  0  0  0  0  0  0  0  0  0  0  0
   13.5963   15.1115   22.5509 F   0  0  0  0  0  0  0  0  0  0  0  0
  1  2  1  0
  2  3  1  0
  3  4  1  0
  4  5  2  0
  5  6  1  0
  6  7  1  0
  6  8  1  0
  6  9  1  0
  5 10  1  0
 10 11  2  0
 11 12  1  0
 12 13  1  0
 13 14  2  0
 13 15  1  0
 15 16  1  1
 16 17  1  0
 17 18  1  0
 17 19  1  0
 17 20  2  0
 15 21  1  0
 21 22  1  0
 21 23  1  0
 21 24  1  0
 11  3  1  0
M  END
$$$$

     RDKit          3D

 24 24  0  0  0  0  0  0  0  0999 V2000
   10.8095    8.6578   23.3318 C   0  0  0  0  0  0  0  0  0  0  0  0
    9.5000    9.2380   22.8891 C   0  0  0  0  0  0  0  0  0  0  0  0
    8.9210   10.1491   23.8540 N   0  0  0  0  0  0  0  0  0  0  0  0
    7.9385    9.7119   24.6781 N   0  0  0  0  0  0  0  0  0  0  0  0
    7.4382   10.8268   25.2363 C   0  0  0  0  0  0  0  0  0  0  0  0
    6.2571   10.8290   26.1547 C   0  0  0  0  0  0  0  0  0  0  0  0
    5.4343   12.0930   26.0070 C   0  0  0  0  0  0  0  0  0  0  0  0
    6.6048   10.7430   27.6121 C   0  0  0  0  0  0  0  0  0  0  0  0
    5.3509    9.6585   25.9433 C   0  0  0  0  0  0  0  0  0  0  0  0
    8.1406   11.9594   24.7886 C   0  0  0  0  0  0  0  0  0  0  0  0
    9.1089   11.4984   23.9308 C   0  0  0  0  0  0  0  0  0  0  0  0
   10.1121   12.1794   23.2835 N   0  0  0  0  0  0  0  0  0  0  0  0
   10.4118   13.4761   23.6859 C   0  0  0  0  0  0  0  0  0  0  0  0
    9.8720   14.1104   24.5884 O   0  0  0  0  0  0  0  0  0  0  0  0
   11.4589   14.0563   22.8434 C   0  0  1  0  0  0  0  0  0  0  0  0
   10.9441   14.5900   21.5258 C   0  0  0  0  0  0  0  0  0  0  0  0
   12.2334   14.0667   20.4087 P   0  0  0  0  0  0  0  0  0  0  0  0
   11.4963   14.0825   18.8123 C   0  0  0  0  0  0  0  0  0  0  0  0
   13.3951   15.3587   20.5037 C   0  0  0  0  0  0  0  0  0  0  0  0
   12.7280   12.8084   21.0311 O   0  0  0  0  0  0  0  0  0  0  0  0
   12.3525   14.9985   23.5504 C   0  0  0  0  0  0  0  0  0  0  0  0
   12.7292   14.5298   24.7519 F   0  0  0  0  0  0  0  0  0  0  0  0
   11.7592   16.1992   23.6938 F   0  0  0  0  0  0  0  0  0  0  0  0
   13.4719   15.2084   22.8422 F   0  0  0  0  0  0  0  0  0  0  0  0
  1  2  1  0
  2  3  1  0
  3  4  1  0
  4  5  2  0
  5  6  1  0
  6  7  1  0
  6  8  1  0
  6  9  1  0
  5 10  1  0
 10 11  2  0
 11 12  1  0
 12 13  1  0
 13 14  2  0
 13 15  1  0
 15 16  1  6
 16 17  1  0
 17 18  1  0
 17 19  1  0
 17 20  2  0
 15 21  1  0
 21 22  1  0
 21 23  1  0
 21 24  1  0
 11  3  1  0
M  END
$$$$

     RDKit          3D

 19 19  0  0  0  0  0  0  0  0999 V2000
   10.9905   14.5846   18.8557 C   0  0  0  0  0  0  0  0  0  0  0  0
   10.7372   14.5290   20.3385 C   0  0  0  0  0  0  0  0  0  0  0  0
   11.8926   13.7946   20.9783 C   0  0  0  0  0  0  0  0  0  0  0  0
   12.0028   13.9811   22.4631 C   0  0  1  0  0  0  0  0  0  0  0  0
   12.0990   15.4123   22.7186 C   0  0  0  0  0  0  0  0  0  0  0  0
   12.0726   16.5629   22.8597 N   0  0  0  0  0  0  0  0  0  0  0  0
   10.9116   13.3657   23.3260 C   0  0  0  0  0  0  0  0  0  0  0  0
   10.5205   13.9169   24.3630 O   0  0  0  0  0  0  0  0  0  0  0  0
   10.4986   12.1001   22.9365 N   0  0  0  0  0  0  0  0  0  0  0  0
    9.4934   11.3979   23.5921 C   0  0  0  0  0  0  0  0  0  0  0  0
    8.5429   11.9272   24.4399 C   0  0  0  0  0  0  0  0  0  0  0  0
    7.8226   10.8801   24.8989 N   0  0  0  0  0  0  0  0  0  0  0  0
    6.7022   10.9462   25.8073 C   0  0  0  0  0  0  0  0  0  0  0  0
    8.2015    9.7015   24.4165 N   0  0  0  0  0  0  0  0  0  0  0  0
    9.2078    9.9976   23.5564 C   0  0  0  0  0  0  0  0  0  0  0  0
    9.8452    8.9385   22.6924 C   0  0  0  0  0  0  0  0  0  0  0  0
   10.7732    8.2089   23.3379 F   0  0  0  0  0  0  0  0  0  0  0  0
    8.9130    8.0998   22.2013 F   0  0  0  0  0  0  0  0  0  0  0  0
   10.4413    9.4779   21.6115 F   0  0  0  0  0  0  0  0  0  0  0  0
  1  2  1  0
  2  3  1  0
  4  3  1  6
  4  5  1  0
  5  6  3  0
  4  7  1  0
  7  8  2  0
  7  9  1  0
  9 10  1  0
 10 11  2  0
 11 12  1  0
 12 13  1  0
 12 14  1  0
 14 15  2  0
 15 16  1  0
 16 17  1  0
 16 18  1  0
 16 19  1  0
 15 10  1  0
M  END
$$$$

     RDKit          3D

 15 16  0  0  0  0  0  0  0  0999 V2000
    9.7680    8.9975   23.1711 C   0  0  0  0  0  0  0  0  0  0  0  0
    9.0257   10.1159   23.8188 C   0  0  0  0  0  0  0  0  0  0  0  0
    8.0258    9.8599   24.7283 C   0  0  0  0  0  0  0  0  0  0  0  0
    7.2823   10.8193   25.3268 N   0  0  0  0  0  0  0  0  0  0  0  0
    7.5713   12.1010   25.0184 C   0  0  0  0  0  0  0  0  0  0  0  0
    8.5766   12.4603   24.1511 C   0  0  0  0  0  0  0  0  0  0  0  0
    9.3189   11.4477   23.5463 C   0  0  0  0  0  0  0  0  0  0  0  0
   10.3187   11.7381   22.6102 N   0  0  0  0  0  0  0  0  0  0  0  0
   11.1998   12.6990   23.0390 N   0  0  0  0  0  0  0  0  0  0  0  0
   11.4284   13.7685   22.1959 C   0  0  0  0  0  0  0  0  0  0  0  0
   10.7379   14.0621   21.2196 O   0  0  0  0  0  0  0  0  0  0  0  0
   12.5535   14.6583   22.7261 C   0  0  0  0  0  0  0  0  0  0  0  0
   12.0934   16.0309   23.2047 C   0  0  0  0  0  0  0  0  0  0  0  0
   12.0394   15.4454   24.6271 C   0  0  0  0  0  0  0  0  0  0  0  0
   13.0568   14.4039   24.1608 C   0  0  0  0  0  0  0  0  0  0  0  0
  1  2  1  0
  2  3  2  0
  3  4  1  0
  4  5  2  0
  5  6  1  0
  6  7  2  0
  7  8  1  0
  8  9  1  0
  9 10  1  0
 10 11  2  0
 10 12  1  0
 12 13  1  0
 13 14  1  0
 14 15  1  0
  7  2  1  0
 15 12  1  0
M  END
$$$$

     RDKit          3D

 15 16  0  0  0  0  0  0  0  0999 V2000
    9.7680    8.9975   23.1711 C   0  0  0  0  0  0  0  0  0  0  0  0
    9.0257   10.1159   23.8188 C   0  0  0  0  0  0  0  0  0  0  0  0
    8.0258    9.8599   24.7283 C   0  0  0  0  0  0  0  0  0  0  0  0
    7.2823   10.8193   25.3268 N   0  0  0  0  0  0  0  0  0  0  0  0
    7.5713   12.1010   25.0184 C   0  0  0  0  0  0  0  0  0  0  0  0
    8.5766   12.4603   24.1511 C   0  0  0  0  0  0  0  0  0  0  0  0
    9.3189   11.4477   23.5463 C   0  0  0  0  0  0  0  0  0  0  0  0
   10.3187   11.7381   22.6102 N   0  0  0  0  0  0  0  0  0  0  0  0
   11.1998   12.6990   23.0390 N   0  0  0  0  0  0  0  0  0  0  0  0
   11.4284   13.7685   22.1959 C   0  0  0  0  0  0  0  0  0  0  0  0
   10.7379   14.0621   21.2196 O   0  0  0  0  0  0  0  0  0  0  0  0
   12.5535   14.6583   22.7261 C   0  0  0  0  0  0  0  0  0  0  0  0
   12.0934   16.0309   23.2047 C   0  0  0  0  0  0  0  0  0  0  0  0
   12.0394   15.4454   24.6271 C   0  0  0  0  0  0  0  0  0  0  0  0
   13.0568   14.4039   24.1608 C   0  0  0  0  0  0  0  0  0  0  0  0
  1  2  1  0
  2  3  2  0
  3  4  1  0
  4  5  2  0
  5  6  1  0
  6  7  2  0
  7  8  1  0
  8  9  1  0
  9 10  1  0
 10 11  2  0
 10 12  1  0
 12 13  1  0
 13 14  1  0
 14 15  1  0
  7  2  1  0
 15 12  1  0
M  END
$$$$

     RDKit          3D

 17 17  0  0  0  0  0  0  0  0999 V2000
    9.5182    9.1458   23.4462 C   0  0  0  0  0  0  0  0  0  0  0  0
    8.7301   10.2296   24.1066 C   0  0  0  0  0  0  0  0  0  0  0  0
    7.7044    9.8400   24.9363 C   0  0  0  0  0  0  0  0  0  0  0  0
    6.8630   10.6838   25.5704 N   0  0  0  0  0  0  0  0  0  0  0  0
    7.0704   12.0009   25.3971 C   0  0  0  0  0  0  0  0  0  0  0  0
    8.0923   12.4934   24.6321 C   0  0  0  0  0  0  0  0  0  0  0  0
    8.9514   11.6062   23.9900 C   0  0  0  0  0  0  0  0  0  0  0  0
    9.9963   12.1592   23.2337 N   0  0  0  0  0  0  0  0  0  0  0  0
   10.6639   11.3162   22.4200 N   0  0  0  0  0  0  0  0  0  0  0  0
   10.4956   13.4449   23.3855 C   0  0  0  0  0  0  0  0  0  0  0  0
   10.1452   14.2063   24.2894 O   0  0  0  0  0  0  0  0  0  0  0  0
   11.4865   13.8635   22.3131 C   0  0  1  0  0  0  0  0  0  0  0  0
   10.7515   14.2514   21.0528 C   0  0  0  0  0  0  0  0  0  0  0  0
   12.4937   14.8956   22.7464 C   0  0  0  0  0  0  0  0  0  0  0  0
   11.8964   16.1841   23.2063 C   0  0  0  0  0  0  0  0  0  0  0  0
   13.3166   14.3107   23.8685 C   0  0  0  0  0  0  0  0  0  0  0  0
   13.3486   15.2911   21.5747 C   0  0  0  0  0  0  0  0  0  0  0  0
  1  2  1  0
  2  3  2  0
  3  4  1  0
  4  5  2  0
  5  6  1  0
  6  7  2  0
  7  8  1  0
  8  9  1  0
  8 10  1  0
 10 11  2  0
 10 12  1  0
 12 13  1  6
 12 14  1  0
 14 15  1  0
 14 16  1  0
 14 17  1  0
  7  2  1  0
M  END
$$$$

     RDKit          3D

 17 17  0  0  0  0  0  0  0  0999 V2000
    9.5182    9.1458   23.4462 C   0  0  0  0  0  0  0  0  0  0  0  0
    8.7301   10.2296   24.1066 C   0  0  0  0  0  0  0  0  0  0  0  0
    7.7044    9.8400   24.9363 C   0  0  0  0  0  0  0  0  0  0  0  0
    6.8630   10.6838   25.5704 N   0  0  0  0  0  0  0  0  0  0  0  0
    7.0704   12.0009   25.3971 C   0  0  0  0  0  0  0  0  0  0  0  0
    8.0923   12.4934   24.6321 C   0  0  0  0  0  0  0  0  0  0  0  0
    8.9514   11.6062   23.9900 C   0  0  0  0  0  0  0  0  0  0  0  0
    9.9963   12.1592   23.2337 N   0  0  0  0  0  0  0  0  0  0  0  0
   10.6639   11.3162   22.4200 N   0  0  0  0  0  0  0  0  0  0  0  0
   10.4956   13.4449   23.3855 C   0  0  0  0  0  0  0  0  0  0  0  0
   10.1452   14.2063   24.2894 O   0  0  0  0  0  0  0  0  0  0  0  0
   11.4865   13.8635   22.3131 C   0  0  1  0  0  0  0  0  0  0  0  0
   10.7515   14.2514   21.0528 C   0  0  0  0  0  0  0  0  0  0  0  0
   12.4937   14.8956   22.7464 C   0  0  0  0  0  0  0  0  0  0  0  0
   11.8964   16.1841   23.2063 C   0  0  0  0  0  0  0  0  0  0  0  0
   13.3166   14.3107   23.8685 C   0  0  0  0  0  0  0  0  0  0  0  0
   13.3486   15.2911   21.5747 C   0  0  0  0  0  0  0  0  0  0  0  0
  1  2  1  0
  2  3  2  0
  3  4  1  0
  4  5  2  0
  5  6  1  0
  6  7  2  0
  7  8  1  0
  8  9  1  0
  8 10  1  0
 10 11  2  0
 10 12  1  0
 12 13  1  6
 12 14  1  0
 14 15  1  0
 14 16  1  0
 14 17  1  0
  7  2  1  0
M  END
$$$$

     RDKit          3D

 20 21  0  0  0  0  0  0  0  0999 V2000
   11.2799    8.6091   23.5956 C   0  0  0  0  0  0  0  0  0  0  0  0
    9.9158    8.9027   23.0790 C   0  0  0  0  0  0  0  0  0  0  0  0
   10.1212    9.1586   21.6394 C   0  0  0  0  0  0  0  0  0  0  0  0
    9.2142    9.9663   23.7458 N   0  0  0  0  0  0  0  0  0  0  0  0
    8.1719    9.5944   24.5419 N   0  0  0  0  0  0  0  0  0  0  0  0
    7.6931   10.7525   24.9518 C   0  0  0  0  0  0  0  0  0  0  0  0
    8.3579   11.8467   24.4351 C   0  0  0  0  0  0  0  0  0  0  0  0
    9.3844   11.3433   23.6792 C   0  0  0  0  0  0  0  0  0  0  0  0
   10.3995   11.9559   22.9699 N   0  0  0  0  0  0  0  0  0  0  0  0
   10.7757   13.2739   23.2224 C   0  0  0  0  0  0  0  0  0  0  0  0
   10.4217   13.9186   24.2105 O   0  0  0  0  0  0  0  0  0  0  0  0
   11.6361   13.8346   22.1157 C   0  0  1  0  0  0  0  0  0  0  0  0
   10.7278   14.3437   21.0860 N   0  0  0  0  0  0  0  0  0  0  0  0
   12.4986   14.9377   22.6838 C   0  0  0  0  0  0  0  0  0  0  0  0
   11.7909   15.9741   23.1873 F   0  0  0  0  0  0  0  0  0  0  0  0
   13.2866   14.4525   23.6737 F   0  0  0  0  0  0  0  0  0  0  0  0
   13.3058   15.4655   21.7397 F   0  0  0  0  0  0  0  0  0  0  0  0
    7.7577   13.1145   24.8722 C   0  0  0  0  0  0  0  0  0  0  0  0
    6.5714   12.6431   25.7729 C   0  0  0  0  0  0  0  0  0  0  0  0
    6.5579   11.0846   25.8182 C   0  0  0  0  0  0  0  0  0  0  0  0
  1  2  1  0
  2  3  1  0
  2  4  1  0
  4  5  1  0
  5  6  2  0
  6  7  1  0
  7  8  2  0
  8  9  1  0
  9 10  1  0
 10 11  2  0
 10 12  1  0
 12 13  1  6
 12 14  1  0
 14 15  1  0
 14 16  1  0
 14 17  1  0
  7 18  1  0
 18 19  1  0
 19 20  1  0
  8  4  1  0
 20  6  1  0
M  END
$$$$

     RDKit          3D

 16 16  0  0  0  0  0  0  0  0999 V2000
    6.6346   10.8549   25.8443 C   0  0  0  0  0  0  0  0  0  0  0  0
    7.7470   10.6114   24.8800 C   0  0  0  0  0  0  0  0  0  0  0  0
    8.0125    9.3198   24.6095 N   0  0  0  0  0  0  0  0  0  0  0  0
    8.9987    9.0227   23.7304 C   0  0  0  0  0  0  0  0  0  0  0  0
    9.7409    9.9797   23.1088 C   0  0  0  0  0  0  0  0  0  0  0  0
    9.4656   11.3067   23.4135 C   0  0  0  0  0  0  0  0  0  0  0  0
   10.3413   12.1722   22.7827 N   0  0  0  0  0  0  0  0  0  0  0  0
   10.7443   13.4264   23.1373 C   0  0  0  0  0  0  0  0  0  0  0  0
   10.3345   14.0851   24.0877 O   0  0  0  0  0  0  0  0  0  0  0  0
   11.8309   13.8680   22.1957 C   0  0  1  0  0  0  0  0  0  0  0  0
   11.2624   14.3226   20.8754 C   0  0  0  0  0  0  0  0  0  0  0  0
   12.7614   14.8723   22.8053 C   0  0  0  0  0  0  0  0  0  0  0  0
   12.1418   16.2360   22.8922 C   0  0  0  0  0  0  0  0  0  0  0  0
   13.2486   14.3888   24.1527 C   0  0  0  0  0  0  0  0  0  0  0  0
    8.4288   11.6537   24.2826 C   0  0  0  0  0  0  0  0  0  0  0  0
    7.9917   13.0508   24.5509 C   0  0  0  0  0  0  0  0  0  0  0  0
  1  2  1  0
  2  3  2  0
  3  4  1  0
  4  5  2  0
  5  6  1  0
  6  7  1  0
  7  8  1  0
  8  9  2  0
  8 10  1  0
 10 11  1  6
 10 12  1  0
 12 13  1  0
 12 14  1  0
  6 15  2  0
 15 16  1  0
 15  2  1  0
M  END
$$$$

     RDKit          3D

 16 16  0  0  0  0  0  0  0  0999 V2000
    6.6346   10.8549   25.8443 C   0  0  0  0  0  0  0  0  0  0  0  0
    7.7470   10.6114   24.8800 C   0  0  0  0  0  0  0  0  0  0  0  0
    8.0125    9.3198   24.6095 N   0  0  0  0  0  0  0  0  0  0  0  0
    8.9987    9.0227   23.7304 C   0  0  0  0  0  0  0  0  0  0  0  0
    9.7409    9.9797   23.1088 C   0  0  0  0  0  0  0  0  0  0  0  0
    9.4656   11.3067   23.4135 C   0  0  0  0  0  0  0  0  0  0  0  0
   10.3413   12.1722   22.7827 N   0  0  0  0  0  0  0  0  0  0  0  0
   10.7443   13.4264   23.1373 C   0  0  0  0  0  0  0  0  0  0  0  0
   10.3345   14.0851   24.0877 O   0  0  0  0  0  0  0  0  0  0  0  0
   11.8309   13.8680   22.1957 C   0  0  1  0  0  0  0  0  0  0  0  0
   11.2624   14.3226   20.8754 C   0  0  0  0  0  0  0  0  0  0  0  0
   12.7614   14.8723   22.8053 C   0  0  0  0  0  0  0  0  0  0  0  0
   12.1418   16.2360   22.8922 C   0  0  0  0  0  0  0  0  0  0  0  0
   13.2486   14.3888   24.1527 C   0  0  0  0  0  0  0  0  0  0  0  0
    8.4288   11.6537   24.2826 C   0  0  0  0  0  0  0  0  0  0  0  0
    7.9917   13.0508   24.5509 C   0  0  0  0  0  0  0  0  0  0  0  0
  1  2  1  0
  2  3  2  0
  3  4  1  0
  4  5  2  0
  5  6  1  0
  6  7  1  0
  7  8  1  0
  8  9  2  0
  8 10  1  0
 10 11  1  6
 10 12  1  0
 12 13  1  0
 12 14  1  0
  6 15  2  0
 15 16  1  0
 15  2  1  0
M  END
$$$$

     RDKit          3D

 20 20  0  0  0  0  0  0  0  0999 V2000
   10.9077    8.6567   23.3044 C   0  0  0  0  0  0  0  0  0  0  0  0
    9.5459    9.1221   22.8806 C   0  0  0  0  0  0  0  0  0  0  0  0
    8.9987   10.1198   23.7764 N   0  0  0  0  0  0  0  0  0  0  0  0
    8.0111    9.7672   24.6271 N   0  0  0  0  0  0  0  0  0  0  0  0
    7.5606   10.9277   25.1295 C   0  0  0  0  0  0  0  0  0  0  0  0
    6.3709   10.9878   26.0410 C   0  0  0  0  0  0  0  0  0  0  0  0
    5.5504   12.2406   25.8262 C   0  0  0  0  0  0  0  0  0  0  0  0
    6.7005   10.9774   27.5039 C   0  0  0  0  0  0  0  0  0  0  0  0
    5.4688    9.7997   25.8922 C   0  0  0  0  0  0  0  0  0  0  0  0
    8.3207   12.0101   24.6260 C   0  0  0  0  0  0  0  0  0  0  0  0
    9.2581   11.4610   23.7788 C   0  0  0  0  0  0  0  0  0  0  0  0
   10.3088   12.0181   23.0789 N   0  0  0  0  0  0  0  0  0  0  0  0
   10.7272   13.3234   23.3269 C   0  0  0  0  0  0  0  0  0  0  0  0
   10.1735   14.0936   24.1092 O   0  0  0  0  0  0  0  0  0  0  0  0
   11.9889   13.6338   22.5603 C   0  0  2  0  0  0  0  0  0  0  0  0
   12.9784   12.7804   22.9802 F   0  0  0  0  0  0  0  0  0  0  0  0
   12.4474   15.0255   22.8938 C   0  0  0  0  0  0  0  0  0  0  0  0
   11.5184   15.9724   22.6702 F   0  0  0  0  0  0  0  0  0  0  0  0
   13.5159   15.3823   22.1577 F   0  0  0  0  0  0  0  0  0  0  0  0
   12.8010   15.0829   24.1958 F   0  0  0  0  0  0  0  0  0  0  0  0
  1  2  1  0
  2  3  1  0
  3  4  1  0
  4  5  2  0
  5  6  1  0
  6  7  1  0
  6  8  1  0
  6  9  1  0
  5 10  1  0
 10 11  2  0
 11 12  1  0
 12 13  1  0
 13 14  2  0
 13 15  1  0
 15 16  1  1
 15 17  1  0
 17 18  1  0
 17 19  1  0
 17 20  1  0
 11  3  1  0
M  END
$$$$

     RDKit          3D

 24 24  0  0  0  0  0  0  0  0999 V2000
    5.4990   12.2903   25.8531 C   0  0  0  0  0  0  0  0  0  0  0  0
    6.3734   11.0742   26.0618 C   0  0  0  0  0  0  0  0  0  0  0  0
    6.6735   11.0431   27.5324 C   0  0  0  0  0  0  0  0  0  0  0  0
    5.5368    9.8469   25.8547 C   0  0  0  0  0  0  0  0  0  0  0  0
    7.5869   11.0932   25.1834 C   0  0  0  0  0  0  0  0  0  0  0  0
    8.2919   12.2174   24.6917 C   0  0  0  0  0  0  0  0  0  0  0  0
    9.2876   11.7164   23.8860 C   0  0  0  0  0  0  0  0  0  0  0  0
   10.2891   12.3349   23.1765 N   0  0  0  0  0  0  0  0  0  0  0  0
   10.7687   13.6138   23.4431 C   0  0  0  0  0  0  0  0  0  0  0  0
   10.4582   14.2726   24.4381 O   0  0  0  0  0  0  0  0  0  0  0  0
   11.8074   14.0589   22.4308 C   0  0  2  0  0  0  0  0  0  0  0  0
   12.7461   12.9938   22.5012 O   0  0  0  0  0  0  0  0  0  0  0  0
   12.6377   15.2372   22.8476 C   0  0  0  0  0  0  0  0  0  0  0  0
   11.9323   16.4516   22.9440 O   0  0  0  0  0  0  0  0  0  0  0  0
   11.2033   14.2532   21.0588 C   0  0  0  0  0  0  0  0  0  0  0  0
   10.0351   13.5876   20.9123 F   0  0  0  0  0  0  0  0  0  0  0  0
   10.8964   15.5452   20.8281 F   0  0  0  0  0  0  0  0  0  0  0  0
   12.0192   13.9087   20.0587 F   0  0  0  0  0  0  0  0  0  0  0  0
    9.1193   10.3506   23.8795 N   0  0  0  0  0  0  0  0  0  0  0  0
    9.7877    9.3657   23.0573 C   0  0  0  0  0  0  0  0  0  0  0  0
   11.0212    8.7423   23.6139 C   0  0  0  0  0  0  0  0  0  0  0  0
    8.8337    8.3267   22.6172 C   0  0  0  0  0  0  0  0  0  0  0  0
   10.2694    9.9055   21.7785 C   0  0  0  0  0  0  0  0  0  0  0  0
    8.1361    9.9581   24.7330 N   0  0  0  0  0  0  0  0  0  0  0  0
  1  2  1  0
  2  3  1  0
  2  4  1  0
  2  5  1  0
  5  6  1  0
  6  7  2  0
  7  8  1  0
  8  9  1  0
  9 10  2  0
  9 11  1  0
 11 12  1  6
 11 13  1  0
 13 14  1  0
 11 15  1  0
 15 16  1  0
 15 17  1  0
 15 18  1  0
  7 19  1  0
 19 20  1  0
 20 21  1  0
 20 22  1  0
 20 23  1  0
 19 24  1  0
 24  5  2  0
M  END
$$$$

     RDKit          3D

 24 24  0  0  0  0  0  0  0  0999 V2000
    5.2138   12.2430   25.9743 C   0  0  0  0  0  0  0  0  0  0  0  0
    6.3214   11.3099   26.4053 C   0  0  0  0  0  0  0  0  0  0  0  0
    5.7011    9.9668   26.6966 C   0  0  0  0  0  0  0  0  0  0  0  0
    6.8276   11.8654   27.7192 C   0  0  0  0  0  0  0  0  0  0  0  0
    7.4199   11.2628   25.3887 C   0  0  0  0  0  0  0  0  0  0  0  0
    8.0746   12.3816   24.8322 C   0  0  0  0  0  0  0  0  0  0  0  0
    9.0808   11.8767   24.0457 C   0  0  0  0  0  0  0  0  0  0  0  0
   10.0923   12.5139   23.3600 N   0  0  0  0  0  0  0  0  0  0  0  0
   10.5434   13.7493   23.7799 C   0  0  0  0  0  0  0  0  0  0  0  0
   10.2865   14.2443   24.8830 O   0  0  0  0  0  0  0  0  0  0  0  0
   11.4011   14.4704   22.7849 C   0  0  1  0  0  0  0  0  0  0  0  0
   10.7010   14.6265   21.5661 O   0  0  0  0  0  0  0  0  0  0  0  0
   11.8243   15.7764   23.4012 C   0  0  0  0  0  0  0  0  0  0  0  0
   12.0404   16.7946   22.4494 O   0  0  0  0  0  0  0  0  0  0  0  0
   12.6755   13.7544   22.6236 C   0  0  0  0  0  0  0  0  0  0  0  0
   13.5492   14.5848   22.0407 F   0  0  0  0  0  0  0  0  0  0  0  0
   12.5329   12.6641   21.8838 F   0  0  0  0  0  0  0  0  0  0  0  0
   13.2031   13.3762   23.8181 F   0  0  0  0  0  0  0  0  0  0  0  0
    8.9336   10.5132   24.0641 N   0  0  0  0  0  0  0  0  0  0  0  0
    9.6223    9.5512   23.2302 C   0  0  0  0  0  0  0  0  0  0  0  0
   10.1102   10.1407   21.9652 C   0  0  0  0  0  0  0  0  0  0  0  0
   10.8788    8.9541   23.7543 C   0  0  0  0  0  0  0  0  0  0  0  0
    8.7052    8.4664   22.8171 C   0  0  0  0  0  0  0  0  0  0  0  0
    7.9571   10.1204   24.9339 N   0  0  0  0  0  0  0  0  0  0  0  0
  1  2  1  0
  2  3  1  0
  2  4  1  0
  2  5  1  0
  5  6  1  0
  6  7  2  0
  7  8  1  0
  8  9  1  0
  9 10  2  0
  9 11  1  0
 11 12  1  6
 11 13  1  0
 13 14  1  0
 11 15  1  0
 15 16  1  0
 15 17  1  0
 15 18  1  0
  7 19  1  0
 19 20  1  0
 20 21  1  0
 20 22  1  0
 20 23  1  0
 19 24  1  0
 24  5  2  0
M  END
$$$$

     RDKit          3D

 15 16  0  0  0  0  0  0  0  0999 V2000
    9.6194    9.2173   23.3845 C   0  0  0  0  0  0  0  0  0  0  0  0
    8.8040   10.2666   24.0681 C   0  0  0  0  0  0  0  0  0  0  0  0
    7.7673    9.8330   24.8621 C   0  0  0  0  0  0  0  0  0  0  0  0
    6.9054   10.6450   25.5118 N   0  0  0  0  0  0  0  0  0  0  0  0
    7.0893   11.9696   25.3795 C   0  0  0  0  0  0  0  0  0  0  0  0
    8.1270   12.5030   24.6651 C   0  0  0  0  0  0  0  0  0  0  0  0
    9.0166   11.6493   24.0192 C   0  0  0  0  0  0  0  0  0  0  0  0
   10.0882   12.2446   23.3377 N   0  0  0  0  0  0  0  0  0  0  0  0
   10.7425   11.4791   22.4435 N   0  0  0  0  0  0  0  0  0  0  0  0
   10.5918   13.5171   23.5756 C   0  0  0  0  0  0  0  0  0  0  0  0
   10.2547   14.2057   24.5518 O   0  0  0  0  0  0  0  0  0  0  0  0
   11.6221   14.0093   22.5456 C   0  0  0  0  0  0  0  0  0  0  0  0
   12.7773   14.8640   23.0458 C   0  0  0  0  0  0  0  0  0  0  0  0
   12.1803   16.0728   22.3392 C   0  0  0  0  0  0  0  0  0  0  0  0
   11.1997   15.1484   21.6203 C   0  0  0  0  0  0  0  0  0  0  0  0
  1  2  1  0
  2  3  2  0
  3  4  1  0
  4  5  2  0
  5  6  1  0
  6  7  2  0
  7  8  1  0
  8  9  1  0
  8 10  1  0
 10 11  2  0
 10 12  1  0
 12 13  1  0
 13 14  1  0
 14 15  1  0
  7  2  1  0
 15 12  1  0
M  END
$$$$

     RDKit          3D

 15 16  0  0  0  0  0  0  0  0999 V2000
    9.6194    9.2173   23.3845 C   0  0  0  0  0  0  0  0  0  0  0  0
    8.8040   10.2666   24.0681 C   0  0  0  0  0  0  0  0  0  0  0  0
    7.7673    9.8330   24.8621 C   0  0  0  0  0  0  0  0  0  0  0  0
    6.9054   10.6450   25.5118 N   0  0  0  0  0  0  0  0  0  0  0  0
    7.0893   11.9696   25.3795 C   0  0  0  0  0  0  0  0  0  0  0  0
    8.1270   12.5030   24.6651 C   0  0  0  0  0  0  0  0  0  0  0  0
    9.0166   11.6493   24.0192 C   0  0  0  0  0  0  0  0  0  0  0  0
   10.0882   12.2446   23.3377 N   0  0  0  0  0  0  0  0  0  0  0  0
   10.7425   11.4791   22.4435 N   0  0  0  0  0  0  0  0  0  0  0  0
   10.5918   13.5171   23.5756 C   0  0  0  0  0  0  0  0  0  0  0  0
   10.2547   14.2057   24.5518 O   0  0  0  0  0  0  0  0  0  0  0  0
   11.6221   14.0093   22.5456 C   0  0  0  0  0  0  0  0  0  0  0  0
   12.7773   14.8640   23.0458 C   0  0  0  0  0  0  0  0  0  0  0  0
   12.1803   16.0728   22.3392 C   0  0  0  0  0  0  0  0  0  0  0  0
   11.1997   15.1484   21.6203 C   0  0  0  0  0  0  0  0  0  0  0  0
  1  2  1  0
  2  3  2  0
  3  4  1  0
  4  5  2  0
  5  6  1  0
  6  7  2  0
  7  8  1  0
  8  9  1  0
  8 10  1  0
 10 11  2  0
 10 12  1  0
 12 13  1  0
 13 14  1  0
 14 15  1  0
  7  2  1  0
 15 12  1  0
M  END
$$$$

     RDKit          3D

 16 17  0  0  0  0  0  0  0  0999 V2000
    9.5343    8.9939   23.2856 C   0  0  0  0  0  0  0  0  0  0  0  0
    8.7505    9.9522   24.0464 N   0  0  0  0  0  0  0  0  0  0  0  0
    7.7499    9.5204   24.8360 N   0  0  0  0  0  0  0  0  0  0  0  0
    7.3001   10.6058   25.4700 C   0  0  0  0  0  0  0  0  0  0  0  0
    6.0985   10.6091   26.5200 C   0  0  0  0  0  0  0  0  0  0  0  0
    6.3114   10.0786   27.9534 C   0  0  0  0  0  0  0  0  0  0  0  0
    4.9475    9.3779   27.9060 C   0  0  0  0  0  0  0  0  0  0  0  0
    5.0052    9.5368   26.3880 C   0  0  0  0  0  0  0  0  0  0  0  0
    7.9929   11.7647   24.9923 C   0  0  0  0  0  0  0  0  0  0  0  0
    8.9298   11.3064   24.0731 C   0  0  0  0  0  0  0  0  0  0  0  0
    9.9188   11.8913   23.2981 N   0  0  0  0  0  0  0  0  0  0  0  0
   10.4532   13.1464   23.5376 C   0  0  0  0  0  0  0  0  0  0  0  0
   10.1806   13.8619   24.5004 O   0  0  0  0  0  0  0  0  0  0  0  0
   11.4805   13.4956   22.4828 C   0  0  0  0  0  0  0  0  0  0  0  0
   11.8570   14.9058   22.5618 C   0  0  0  0  0  0  0  0  0  0  0  0
   12.1103   16.0353   22.6589 N   0  0  0  0  0  0  0  0  0  0  0  0
  1  2  1  0
  2  3  1  0
  3  4  2  0
  4  5  1  0
  5  6  1  0
  6  7  1  0
  7  8  1  0
  4  9  1  0
  9 10  2  0
 10 11  1  0
 11 12  1  0
 12 13  2  0
 12 14  1  0
 14 15  1  0
 15 16  3  0
 10  2  1  0
  8  5  1  0
M  ISO  1  14  14
M  END
$$$$

     RDKit          3D

 16 17  0  0  0  0  0  0  0  0999 V2000
    9.5343    8.9939   23.2856 C   0  0  0  0  0  0  0  0  0  0  0  0
    8.7505    9.9522   24.0464 N   0  0  0  0  0  0  0  0  0  0  0  0
    7.7499    9.5204   24.8360 N   0  0  0  0  0  0  0  0  0  0  0  0
    7.3001   10.6058   25.4700 C   0  0  0  0  0  0  0  0  0  0  0  0
    6.0985   10.6091   26.5200 C   0  0  0  0  0  0  0  0  0  0  0  0
    6.3114   10.0786   27.9534 C   0  0  0  0  0  0  0  0  0  0  0  0
    4.9475    9.3779   27.9060 C   0  0  0  0  0  0  0  0  0  0  0  0
    5.0052    9.5368   26.3880 C   0  0  0  0  0  0  0  0  0  0  0  0
    7.9929   11.7647   24.9923 C   0  0  0  0  0  0  0  0  0  0  0  0
    8.9298   11.3064   24.0731 C   0  0  0  0  0  0  0  0  0  0  0  0
    9.9188   11.8913   23.2981 N   0  0  0  0  0  0  0  0  0  0  0  0
   10.4532   13.1464   23.5376 C   0  0  0  0  0  0  0  0  0  0  0  0
   10.1806   13.8619   24.5004 O   0  0  0  0  0  0  0  0  0  0  0  0
   11.4805   13.4956   22.4828 C   0  0  0  0  0  0  0  0  0  0  0  0
   11.8570   14.9058   22.5618 C   0  0  0  0  0  0  0  0  0  0  0  0
   12.1103   16.0353   22.6589 N   0  0  0  0  0  0  0  0  0  0  0  0
  1  2  1  0
  2  3  1  0
  3  4  2  0
  4  5  1  0
  5  6  1  0
  6  7  1  0
  7  8  1  0
  4  9  1  0
  9 10  2  0
 10 11  1  0
 11 12  1  0
 12 13  2  0
 12 14  1  0
 14 15  1  0
 15 16  3  0
 10  2  1  0
  8  5  1  0
M  ISO  1  14  14
M  END
$$$$

     RDKit          3D

 16 17  0  0  0  0  0  0  0  0999 V2000
    9.5343    8.9939   23.2856 C   0  0  0  0  0  0  0  0  0  0  0  0
    8.7505    9.9522   24.0464 N   0  0  0  0  0  0  0  0  0  0  0  0
    7.7499    9.5204   24.8360 N   0  0  0  0  0  0  0  0  0  0  0  0
    7.3001   10.6058   25.4700 C   0  0  0  0  0  0  0  0  0  0  0  0
    6.0985   10.6091   26.5200 C   0  0  0  0  0  0  0  0  0  0  0  0
    6.3114   10.0786   27.9534 C   0  0  0  0  0  0  0  0  0  0  0  0
    4.9475    9.3779   27.9060 C   0  0  0  0  0  0  0  0  0  0  0  0
    5.0052    9.5368   26.3880 C   0  0  0  0  0  0  0  0  0  0  0  0
    7.9929   11.7647   24.9923 C   0  0  0  0  0  0  0  0  0  0  0  0
    8.9298   11.3064   24.0731 C   0  0  0  0  0  0  0  0  0  0  0  0
    9.9188   11.8913   23.2981 N   0  0  0  0  0  0  0  0  0  0  0  0
   10.4532   13.1464   23.5376 C   0  0  0  0  0  0  0  0  0  0  0  0
   10.1806   13.8619   24.5004 O   0  0  0  0  0  0  0  0  0  0  0  0
   11.4805   13.4956   22.4828 C   0  0  0  0  0  0  0  0  0  0  0  0
   11.8570   14.9058   22.5618 C   0  0  0  0  0  0  0  0  0  0  0  0
   12.1103   16.0353   22.6589 N   0  0  0  0  0  0  0  0  0  0  0  0
  1  2  1  0
  2  3  1  0
  3  4  2  0
  4  5  1  0
  5  6  1  0
  6  7  1  0
  7  8  1  0
  4  9  1  0
  9 10  2  0
 10 11  1  0
 11 12  1  0
 12 13  2  0
 12 14  1  0
 14 15  1  0
 15 16  3  0
 10  2  1  0
  8  5  1  0
M  ISO  1  14  14
M  END
$$$$

     RDKit          3D

 19 19  0  0  0  0  0  0  0  0999 V2000
    3.9977   12.3105   26.8179 C   0  0  0  0  0  0  0  0  0  0  0  0
    5.4971   12.5200   26.7881 C   0  0  1  0  0  0  0  0  0  0  0  0
    5.7824   13.9051   26.2307 C   0  0  0  0  0  0  0  0  0  0  0  0
    5.0930   14.8676   26.5806 O   0  0  0  0  0  0  0  0  0  0  0  0
    6.8680   14.0785   25.4011 N   0  0  0  0  0  0  0  0  0  0  0  0
    7.7019   13.1149   24.8403 C   0  0  0  0  0  0  0  0  0  0  0  0
    8.7549   13.5305   24.0368 C   0  0  0  0  0  0  0  0  0  0  0  0
    9.5806   12.5823   23.4062 C   0  0  0  0  0  0  0  0  0  0  0  0
   10.6471   13.0349   22.6159 N   0  0  0  0  0  0  0  0  0  0  0  0
    9.3179   11.2396   23.5709 C   0  0  0  0  0  0  0  0  0  0  0  0
    9.9761   10.1736   22.8744 C   0  0  0  0  0  0  0  0  0  0  0  0
   10.3625    9.2442   22.3020 N   0  0  0  0  0  0  0  0  0  0  0  0
    8.2855   10.9560   24.4287 C   0  0  0  0  0  0  0  0  0  0  0  0
    7.8699    9.2219   24.7634 Br  0  0  0  0  0  0  0  0  0  0  0  0
    7.4866   11.8290   25.0689 N   0  0  0  0  0  0  0  0  0  0  0  0
    6.0926   12.2542   28.1695 C   0  0  0  0  0  0  0  0  0  0  0  0
    5.2546   12.8410   29.2868 C   0  0  0  0  0  0  0  0  0  0  0  0
    6.1714   10.7560   28.3856 C   0  0  0  0  0  0  0  0  0  0  0  0
    7.4784   12.8305   28.3095 C   0  0  0  0  0  0  0  0  0  0  0  0
  2  1  1  1
  2  3  1  0
  3  4  2  0
  3  5  1  0
  5  6  1  0
  6  7  2  0
  7  8  1  0
  8  9  1  0
  8 10  2  0
 10 11  1  0
 11 12  3  0
 10 13  1  0
 13 14  1  0
 13 15  2  0
  2 16  1  0
 16 17  1  0
 16 18  1  0
 16 19  1  0
 15  6  1  0
M  END
$$$$

     RDKit          3D

 19 19  0  0  0  0  0  0  0  0999 V2000
    3.9977   12.3105   26.8179 C   0  0  0  0  0  0  0  0  0  0  0  0
    5.4971   12.5200   26.7881 C   0  0  1  0  0  0  0  0  0  0  0  0
    5.7824   13.9051   26.2307 C   0  0  0  0  0  0  0  0  0  0  0  0
    5.0930   14.8676   26.5806 O   0  0  0  0  0  0  0  0  0  0  0  0
    6.8680   14.0785   25.4011 N   0  0  0  0  0  0  0  0  0  0  0  0
    7.7019   13.1149   24.8403 C   0  0  0  0  0  0  0  0  0  0  0  0
    8.7549   13.5305   24.0368 C   0  0  0  0  0  0  0  0  0  0  0  0
    9.5806   12.5823   23.4062 C   0  0  0  0  0  0  0  0  0  0  0  0
   10.6471   13.0349   22.6159 N   0  0  0  0  0  0  0  0  0  0  0  0
    9.3179   11.2396   23.5709 C   0  0  0  0  0  0  0  0  0  0  0  0
    9.9761   10.1736   22.8744 C   0  0  0  0  0  0  0  0  0  0  0  0
   10.3625    9.2442   22.3020 N   0  0  0  0  0  0  0  0  0  0  0  0
    8.2855   10.9560   24.4287 C   0  0  0  0  0  0  0  0  0  0  0  0
    7.8699    9.2219   24.7634 Br  0  0  0  0  0  0  0  0  0  0  0  0
    7.4866   11.8290   25.0689 N   0  0  0  0  0  0  0  0  0  0  0  0
    6.0926   12.2542   28.1695 C   0  0  0  0  0  0  0  0  0  0  0  0
    5.2546   12.8410   29.2868 C   0  0  0  0  0  0  0  0  0  0  0  0
    6.1714   10.7560   28.3856 C   0  0  0  0  0  0  0  0  0  0  0  0
    7.4784   12.8305   28.3095 C   0  0  0  0  0  0  0  0  0  0  0  0
  2  1  1  1
  2  3  1  0
  3  4  2  0
  3  5  1  0
  5  6  1  0
  6  7  2  0
  7  8  1  0
  8  9  1  0
  8 10  2  0
 10 11  1  0
 11 12  3  0
 10 13  1  0
 13 14  1  0
 13 15  2  0
  2 16  1  0
 16 17  1  0
 16 18  1  0
 16 19  1  0
 15  6  1  0
M  END
$$$$

     RDKit          3D

 21 21  0  0  0  0  0  0  0  0999 V2000
    9.7896    8.8083   21.9691 C   0  0  0  0  0  0  0  0  0  0  0  0
    9.9898    9.1213   23.4187 C   0  0  0  0  0  0  0  0  0  0  0  0
    9.0948   10.1686   23.8701 N   0  0  0  0  0  0  0  0  0  0  0  0
    8.0907    9.8471   24.7125 N   0  0  0  0  0  0  0  0  0  0  0  0
    7.5706   11.0208   25.0958 C   0  0  0  0  0  0  0  0  0  0  0  0
    6.3808   11.0757   26.0058 C   0  0  0  0  0  0  0  0  0  0  0  0
    5.5358   12.3083   25.7796 C   0  0  0  0  0  0  0  0  0  0  0  0
    6.7204   11.0936   27.4671 C   0  0  0  0  0  0  0  0  0  0  0  0
    5.5067    9.8627   25.8781 C   0  0  0  0  0  0  0  0  0  0  0  0
    8.2892   12.0962   24.5132 C   0  0  0  0  0  0  0  0  0  0  0  0
    9.2792   11.5192   23.7464 C   0  0  0  0  0  0  0  0  0  0  0  0
   10.3048   12.0613   22.9994 N   0  0  0  0  0  0  0  0  0  0  0  0
   10.7934   13.3382   23.2413 C   0  0  0  0  0  0  0  0  0  0  0  0
   10.5419   14.0013   24.2486 O   0  0  0  0  0  0  0  0  0  0  0  0
   11.7364   13.7865   22.1643 C   0  0  2  0  0  0  0  0  0  0  0  0
   12.7459   14.7965   22.6323 C   0  0  0  0  0  0  0  0  0  0  0  0
   12.1558   16.0282   23.0063 O   0  0  0  0  0  0  0  0  0  0  0  0
   11.0245   14.2672   20.9436 C   0  0  0  0  0  0  0  0  0  0  0  0
   11.8323   14.2401   19.8688 F   0  0  0  0  0  0  0  0  0  0  0  0
   10.5827   15.5309   21.0705 F   0  0  0  0  0  0  0  0  0  0  0  0
    9.9176   13.5507   20.6766 F   0  0  0  0  0  0  0  0  0  0  0  0
  1  2  1  0
  2  3  1  0
  3  4  1  0
  4  5  2  0
  5  6  1  0
  6  7  1  0
  6  8  1  0
  6  9  1  0
  5 10  1  0
 10 11  2  0
 11 12  1  0
 12 13  1  0
 13 14  2  0
 13 15  1  0
 15 16  1  1
 16 17  1  0
 15 18  1  0
 18 19  1  0
 18 20  1  0
 18 21  1  0
 11  3  1  0
M  END
$$$$

     RDKit          3D

 16 16  0  0  0  0  0  0  0  0999 V2000
    9.4856    9.1394   23.4630 C   0  0  0  0  0  0  0  0  0  0  0  0
    8.7136   10.2433   24.1099 C   0  0  0  0  0  0  0  0  0  0  0  0
    7.6879    9.8760   24.9505 C   0  0  0  0  0  0  0  0  0  0  0  0
    6.8607   10.7385   25.5768 N   0  0  0  0  0  0  0  0  0  0  0  0
    7.0832   12.0507   25.3819 C   0  0  0  0  0  0  0  0  0  0  0  0
    8.1072   12.5220   24.6050 C   0  0  0  0  0  0  0  0  0  0  0  0
    8.9515   11.6164   23.9704 C   0  0  0  0  0  0  0  0  0  0  0  0
   10.0089   12.1407   23.2086 N   0  0  0  0  0  0  0  0  0  0  0  0
   10.6648   11.2672   22.4178 N   0  0  0  0  0  0  0  0  0  0  0  0
   10.5382   13.4172   23.3446 C   0  0  0  0  0  0  0  0  0  0  0  0
   10.1510   14.2281   24.1887 O   0  0  0  0  0  0  0  0  0  0  0  0
   11.6412   13.7506   22.3540 C   0  0  1  0  0  0  0  0  0  0  0  0
   11.0486   14.2175   21.0453 C   0  0  0  0  0  0  0  0  0  0  0  0
   12.6574   14.7272   22.8754 C   0  0  0  0  0  0  0  0  0  0  0  0
   12.1562   16.1422   22.8964 C   0  0  0  0  0  0  0  0  0  0  0  0
   13.1931   14.3007   24.2200 C   0  0  0  0  0  0  0  0  0  0  0  0
  1  2  1  0
  2  3  2  0
  3  4  1  0
  4  5  2  0
  5  6  1  0
  6  7  2  0
  7  8  1  0
  8  9  1  0
  8 10  1  0
 10 11  2  0
 10 12  1  0
 12 13  1  6
 12 14  1  0
 14 15  1  0
 14 16  1  0
  7  2  1  0
M  END
$$$$

     RDKit          3D

 16 16  0  0  0  0  0  0  0  0999 V2000
    9.4856    9.1394   23.4630 C   0  0  0  0  0  0  0  0  0  0  0  0
    8.7136   10.2433   24.1099 C   0  0  0  0  0  0  0  0  0  0  0  0
    7.6879    9.8760   24.9505 C   0  0  0  0  0  0  0  0  0  0  0  0
    6.8607   10.7385   25.5768 N   0  0  0  0  0  0  0  0  0  0  0  0
    7.0832   12.0507   25.3819 C   0  0  0  0  0  0  0  0  0  0  0  0
    8.1072   12.5220   24.6050 C   0  0  0  0  0  0  0  0  0  0  0  0
    8.9515   11.6164   23.9704 C   0  0  0  0  0  0  0  0  0  0  0  0
   10.0089   12.1407   23.2086 N   0  0  0  0  0  0  0  0  0  0  0  0
   10.6648   11.2672   22.4178 N   0  0  0  0  0  0  0  0  0  0  0  0
   10.5382   13.4172   23.3446 C   0  0  0  0  0  0  0  0  0  0  0  0
   10.1510   14.2281   24.1887 O   0  0  0  0  0  0  0  0  0  0  0  0
   11.6412   13.7506   22.3540 C   0  0  1  0  0  0  0  0  0  0  0  0
   11.0486   14.2175   21.0453 C   0  0  0  0  0  0  0  0  0  0  0  0
   12.6574   14.7272   22.8754 C   0  0  0  0  0  0  0  0  0  0  0  0
   12.1562   16.1422   22.8964 C   0  0  0  0  0  0  0  0  0  0  0  0
   13.1931   14.3007   24.2200 C   0  0  0  0  0  0  0  0  0  0  0  0
  1  2  1  0
  2  3  2  0
  3  4  1  0
  4  5  2  0
  5  6  1  0
  6  7  2  0
  7  8  1  0
  8  9  1  0
  8 10  1  0
 10 11  2  0
 10 12  1  0
 12 13  1  6
 12 14  1  0
 14 15  1  0
 14 16  1  0
  7  2  1  0
M  END
$$$$

     RDKit          3D

 19 20  0  0  0  0  0  0  0  0999 V2000
   14.4861   12.6077   25.0107 C   0  0  0  0  0  0  0  0  0  0  0  0
   13.3900   13.5162   24.5074 C   0  0  0  0  0  0  0  0  0  0  0  0
   12.8133   12.9883   23.2169 C   0  0  0  0  0  0  0  0  0  0  0  0
   11.5566   13.6638   22.7335 C   0  0  2  0  0  0  0  0  0  0  0  0
   11.7809   15.1016   22.6215 C   0  0  0  0  0  0  0  0  0  0  0  0
   11.9944   16.2420   22.5771 N   0  0  0  0  0  0  0  0  0  0  0  0
   10.4003   13.2959   23.6423 C   0  0  0  0  0  0  0  0  0  0  0  0
    9.9949   14.0275   24.5448 O   0  0  0  0  0  0  0  0  0  0  0  0
    9.9415   12.0072   23.3887 N   0  0  0  0  0  0  0  0  0  0  0  0
    8.9330   11.3847   24.1139 C   0  0  0  0  0  0  0  0  0  0  0  0
    7.9700   11.8129   25.0209 C   0  0  0  0  0  0  0  0  0  0  0  0
    7.2904   10.6383   25.4760 C   0  0  0  0  0  0  0  0  0  0  0  0
    6.0863   10.6163   26.5218 C   0  0  0  0  0  0  0  0  0  0  0  0
    5.0070    9.5315   26.3853 C   0  0  0  0  0  0  0  0  0  0  0  0
    4.9454    9.3740   27.9037 C   0  0  0  0  0  0  0  0  0  0  0  0
    6.3040   10.0852   27.9541 C   0  0  0  0  0  0  0  0  0  0  0  0
    7.7615    9.5686   24.8304 N   0  0  0  0  0  0  0  0  0  0  0  0
    8.7671   10.0270   24.0598 N   0  0  0  0  0  0  0  0  0  0  0  0
    9.5699    9.0828   23.3005 C   0  0  0  0  0  0  0  0  0  0  0  0
  1  2  1  0
  2  3  1  0
  4  3  1  1
  4  5  1  0
  5  6  3  0
  4  7  1  0
  7  8  2  0
  7  9  1  0
  9 10  1  0
 10 11  2  0
 11 12  1  0
 12 13  1  0
 13 14  1  0
 14 15  1  0
 15 16  1  0
 12 17  2  0
 17 18  1  0
 18 19  1  0
 18 10  1  0
 16 13  1  0
M  END
$$$$

     RDKit          3D

 19 20  0  0  0  0  0  0  0  0999 V2000
   14.4861   12.6077   25.0107 C   0  0  0  0  0  0  0  0  0  0  0  0
   13.3900   13.5162   24.5074 C   0  0  0  0  0  0  0  0  0  0  0  0
   12.8133   12.9883   23.2169 C   0  0  0  0  0  0  0  0  0  0  0  0
   11.5566   13.6638   22.7335 C   0  0  2  0  0  0  0  0  0  0  0  0
   11.7809   15.1016   22.6215 C   0  0  0  0  0  0  0  0  0  0  0  0
   11.9944   16.2420   22.5771 N   0  0  0  0  0  0  0  0  0  0  0  0
   10.4003   13.2959   23.6423 C   0  0  0  0  0  0  0  0  0  0  0  0
    9.9949   14.0275   24.5448 O   0  0  0  0  0  0  0  0  0  0  0  0
    9.9415   12.0072   23.3887 N   0  0  0  0  0  0  0  0  0  0  0  0
    8.9330   11.3847   24.1139 C   0  0  0  0  0  0  0  0  0  0  0  0
    7.9700   11.8129   25.0209 C   0  0  0  0  0  0  0  0  0  0  0  0
    7.2904   10.6383   25.4760 C   0  0  0  0  0  0  0  0  0  0  0  0
    6.0863   10.6163   26.5218 C   0  0  0  0  0  0  0  0  0  0  0  0
    5.0070    9.5315   26.3853 C   0  0  0  0  0  0  0  0  0  0  0  0
    4.9454    9.3740   27.9037 C   0  0  0  0  0  0  0  0  0  0  0  0
    6.3040   10.0852   27.9541 C   0  0  0  0  0  0  0  0  0  0  0  0
    7.7615    9.5686   24.8304 N   0  0  0  0  0  0  0  0  0  0  0  0
    8.7671   10.0270   24.0598 N   0  0  0  0  0  0  0  0  0  0  0  0
    9.5699    9.0828   23.3005 C   0  0  0  0  0  0  0  0  0  0  0  0
  1  2  1  0
  2  3  1  0
  4  3  1  1
  4  5  1  0
  5  6  3  0
  4  7  1  0
  7  8  2  0
  7  9  1  0
  9 10  1  0
 10 11  2  0
 11 12  1  0
 12 13  1  0
 13 14  1  0
 14 15  1  0
 15 16  1  0
 12 17  2  0
 17 18  1  0
 18 19  1  0
 18 10  1  0
 16 13  1  0
M  END
$$$$

     RDKit          3D

 19 20  0  0  0  0  0  0  0  0999 V2000
   14.4861   12.6077   25.0107 C   0  0  0  0  0  0  0  0  0  0  0  0
   13.3900   13.5162   24.5074 C   0  0  0  0  0  0  0  0  0  0  0  0
   12.8133   12.9883   23.2169 C   0  0  0  0  0  0  0  0  0  0  0  0
   11.5566   13.6638   22.7335 C   0  0  2  0  0  0  0  0  0  0  0  0
   11.7809   15.1016   22.6215 C   0  0  0  0  0  0  0  0  0  0  0  0
   11.9944   16.2420   22.5771 N   0  0  0  0  0  0  0  0  0  0  0  0
   10.4003   13.2959   23.6423 C   0  0  0  0  0  0  0  0  0  0  0  0
    9.9949   14.0275   24.5448 O   0  0  0  0  0  0  0  0  0  0  0  0
    9.9415   12.0072   23.3887 N   0  0  0  0  0  0  0  0  0  0  0  0
    8.9330   11.3847   24.1139 C   0  0  0  0  0  0  0  0  0  0  0  0
    7.9700   11.8129   25.0209 C   0  0  0  0  0  0  0  0  0  0  0  0
    7.2904   10.6383   25.4760 C   0  0  0  0  0  0  0  0  0  0  0  0
    6.0863   10.6163   26.5218 C   0  0  0  0  0  0  0  0  0  0  0  0
    5.0070    9.5315   26.3853 C   0  0  0  0  0  0  0  0  0  0  0  0
    4.9454    9.3740   27.9037 C   0  0  0  0  0  0  0  0  0  0  0  0
    6.3040   10.0852   27.9541 C   0  0  0  0  0  0  0  0  0  0  0  0
    7.7615    9.5686   24.8304 N   0  0  0  0  0  0  0  0  0  0  0  0
    8.7671   10.0270   24.0598 N   0  0  0  0  0  0  0  0  0  0  0  0
    9.5699    9.0828   23.3005 C   0  0  0  0  0  0  0  0  0  0  0  0
  1  2  1  0
  2  3  1  0
  4  3  1  1
  4  5  1  0
  5  6  3  0
  4  7  1  0
  7  8  2  0
  7  9  1  0
  9 10  1  0
 10 11  2  0
 11 12  1  0
 12 13  1  0
 13 14  1  0
 14 15  1  0
 15 16  1  0
 12 17  2  0
 17 18  1  0
 18 19  1  0
 18 10  1  0
 16 13  1  0
M  END
$$$$

     RDKit          3D

 26 27  0  0  0  0  0  0  0  0999 V2000
    2.5422    7.3662   28.5813 C   0  0  0  0  0  0  0  0  0  0  0  0
    3.7593    8.1446   28.1346 C   0  0  0  0  0  0  0  0  0  0  0  0
    3.6712    9.4501   28.7086 O   0  0  0  0  0  0  0  0  0  0  0  0
    4.6373   10.2827   28.2132 C   0  0  0  0  0  0  0  0  0  0  0  0
    5.3296   10.0771   27.0241 C   0  0  0  0  0  0  0  0  0  0  0  0
    6.2499   11.0284   26.5637 C   0  0  0  0  0  0  0  0  0  0  0  0
    6.4842   12.2075   27.2792 C   0  0  0  0  0  0  0  0  0  0  0  0
    7.5634   13.0761   26.8424 C   0  0  0  0  0  0  0  0  0  0  0  0
    7.8809   14.3798   26.8229 C   0  0  0  0  0  0  0  0  0  0  0  0
    7.0454   15.4444   27.2056 C   0  0  0  0  0  0  0  0  0  0  0  0
    6.4093   16.3865   27.4334 N   0  0  0  0  0  0  0  0  0  0  0  0
    9.1735   14.8031   26.2008 C   0  0  0  0  0  0  0  0  0  0  0  0
    9.8149   15.7566   26.6417 O   0  0  0  0  0  0  0  0  0  0  0  0
    9.5439   14.1053   25.0822 N   0  0  0  0  0  0  0  0  0  0  0  0
    8.6347   13.7837   24.1037 C   0  0  0  0  0  0  0  0  0  0  0  0
    7.4381   14.4197   23.8826 C   0  0  0  0  0  0  0  0  0  0  0  0
    6.9280   13.8348   22.7871 N   0  0  0  0  0  0  0  0  0  0  0  0
    5.7042   14.2183   22.1270 C   0  0  0  0  0  0  0  0  0  0  0  0
    7.6549   12.8150   22.3339 N   0  0  0  0  0  0  0  0  0  0  0  0
    8.7190   12.7414   23.1616 C   0  0  0  0  0  0  0  0  0  0  0  0
    9.7759   11.6551   23.1758 C   0  0  0  0  0  0  0  0  0  0  0  0
    9.6851   10.7608   22.1718 F   0  0  0  0  0  0  0  0  0  0  0  0
    9.5940   10.9327   24.3182 F   0  0  0  0  0  0  0  0  0  0  0  0
   11.3612   12.4480   23.2263 Cl  0  0  0  0  0  0  0  0  0  0  0  0
    5.8079   12.3975   28.4795 C   0  0  0  0  0  0  0  0  0  0  0  0
    4.8780   11.4516   28.9320 C   0  0  0  0  0  0  0  0  0  0  0  0
  1  2  1  0
  2  3  1  0
  3  4  1  0
  4  5  2  0
  5  6  1  0
  6  7  2  0
  7  8  1  0
  8  9  2  0
  9 10  1  0
 10 11  3  0
  9 12  1  0
 12 13  2  0
 12 14  1  0
 14 15  1  0
 15 16  2  0
 16 17  1  0
 17 18  1  0
 17 19  1  0
 19 20  2  0
 20 21  1  0
 21 22  1  0
 21 23  1  0
 21 24  1  0
  7 25  1  0
 25 26  2  0
 26  4  1  0
 20 15  1  0
M  END
$$$$

     RDKit          3D

 20 21  0  0  0  0  0  0  0  0999 V2000
    9.5307    9.3537   23.3523 C   0  0  0  0  0  0  0  0  0  0  0  0
    8.6709   10.2208   24.1446 N   0  0  0  0  0  0  0  0  0  0  0  0
    7.6904    9.6691   24.8908 N   0  0  0  0  0  0  0  0  0  0  0  0
    7.1594   10.6806   25.5829 C   0  0  0  0  0  0  0  0  0  0  0  0
    5.9638   10.5663   26.6205 C   0  0  0  0  0  0  0  0  0  0  0  0
    6.2157   10.0085   28.0349 C   0  0  0  0  0  0  0  0  0  0  0  0
    4.8723    9.2671   27.9772 C   0  0  0  0  0  0  0  0  0  0  0  0
    4.9240    9.4505   26.4600 C   0  0  0  0  0  0  0  0  0  0  0  0
    7.7766   11.9090   25.2013 C   0  0  0  0  0  0  0  0  0  0  0  0
    8.7518   11.5848   24.2711 C   0  0  0  0  0  0  0  0  0  0  0  0
    9.6858   12.3286   23.5730 N   0  0  0  0  0  0  0  0  0  0  0  0
   10.1964   13.5571   23.9765 C   0  0  0  0  0  0  0  0  0  0  0  0
    9.8994   14.1464   25.0167 O   0  0  0  0  0  0  0  0  0  0  0  0
   11.1563   14.1857   22.9966 C   0  0  1  0  0  0  0  0  0  0  0  0
   11.8457   15.3867   23.5814 C   0  0  0  0  0  0  0  0  0  0  0  0
   12.0017   16.3806   22.5889 O   0  0  0  0  0  0  0  0  0  0  0  0
   12.2549   13.2506   22.6939 C   0  0  0  0  0  0  0  0  0  0  0  0
   12.9276   13.6772   21.6230 F   0  0  0  0  0  0  0  0  0  0  0  0
   13.1190   13.1223   23.7302 F   0  0  0  0  0  0  0  0  0  0  0  0
   11.7426   12.0464   22.4485 F   0  0  0  0  0  0  0  0  0  0  0  0
  1  2  1  0
  2  3  1  0
  3  4  2  0
  4  5  1  0
  5  6  1  0
  6  7  1  0
  7  8  1  0
  4  9  1  0
  9 10  2  0
 10 11  1  0
 11 12  1  0
 12 13  2  0
 12 14  1  0
 14 15  1  1
 15 16  1  0
 14 17  1  0
 17 18  1  0
 17 19  1  0
 17 20  1  0
 10  2  1  0
  8  5  1  0
M  END
$$$$

     RDKit          3D

 25 25  0  0  0  0  0  0  0  0999 V2000
   12.4646   14.2981   20.1045 C   0  0  0  0  0  0  0  0  0  0  0  0
   11.3805   14.0511   21.1185 C   0  0  0  0  0  0  0  0  0  0  0  0
   10.1704   14.8809   20.7820 C   0  0  0  0  0  0  0  0  0  0  0  0
   11.8048   14.0686   22.5771 C   0  0  2  0  0  0  0  0  0  0  0  0
   12.7631   12.9989   22.8482 N   0  0  0  0  0  0  0  0  0  0  0  0
   10.6431   13.7345   23.4943 C   0  0  0  0  0  0  0  0  0  0  0  0
   10.2650   14.3984   24.4551 O   0  0  0  0  0  0  0  0  0  0  0  0
   10.0998   12.5172   23.1429 N   0  0  0  0  0  0  0  0  0  0  0  0
    9.1520   11.8677   23.8771 C   0  0  0  0  0  0  0  0  0  0  0  0
    8.2236   12.2419   24.8069 C   0  0  0  0  0  0  0  0  0  0  0  0
    7.5417   11.0443   25.1504 C   0  0  0  0  0  0  0  0  0  0  0  0
    6.3475   10.9500   26.0533 C   0  0  0  0  0  0  0  0  0  0  0  0
    5.4454   12.1591   25.9124 C   0  0  0  0  0  0  0  0  0  0  0  0
    6.6689   10.8729   27.5164 C   0  0  0  0  0  0  0  0  0  0  0  0
    5.5260    9.7246   25.8135 C   0  0  0  0  0  0  0  0  0  0  0  0
    8.0482    9.9869   24.4804 N   0  0  0  0  0  0  0  0  0  0  0  0
    9.0348   10.5217   23.7294 N   0  0  0  0  0  0  0  0  0  0  0  0
    9.7416    9.8929   22.6405 C   0  0  0  0  0  0  0  0  0  0  0  0
    9.9864    8.4710   22.7234 C   0  0  0  0  0  0  0  0  0  0  0  0
   10.8797    7.9517   23.3611 O   0  0  0  0  0  0  0  0  0  0  0  0
    9.1751    7.8664   21.8338 O   0  0  0  0  0  0  0  0  0  0  0  0
   12.4742   15.3279   23.0298 C   0  0  0  0  0  0  0  0  0  0  0  0
   13.5611   15.5977   22.2800 F   0  0  0  0  0  0  0  0  0  0  0  0
   12.8778   15.1797   24.3119 F   0  0  0  0  0  0  0  0  0  0  0  0
   11.6936   16.4215   22.9593 F   0  0  0  0  0  0  0  0  0  0  0  0
  1  2  1  0
  2  3  1  0
  2  4  1  0
  4  5  1  6
  4  6  1  0
  6  7  2  0
  6  8  1  0
  8  9  1  0
  9 10  2  0
 10 11  1  0
 11 12  1  0
 12 13  1  0
 12 14  1  0
 12 15  1  0
 11 16  2  0
 16 17  1  0
 17 18  1  0
 18 19  1  0
 19 20  2  0
 19 21  1  0
  4 22  1  0
 22 23  1  0
 22 24  1  0
 22 25  1  0
 17  9  1  0
M  END
$$$$

     RDKit          3D

 25 25  0  0  0  0  0  0  0  0999 V2000
   11.9278   16.5660   23.0312 C   0  0  0  0  0  0  0  0  0  0  0  0
   12.6329   15.3102   22.6763 C   0  0  0  0  0  0  0  0  0  0  0  0
   13.4867   15.6385   21.4791 C   0  0  0  0  0  0  0  0  0  0  0  0
   11.7259   14.1369   22.4095 C   0  0  1  0  0  0  0  0  0  0  0  0
   12.6718   13.0378   22.4896 N   0  0  0  0  0  0  0  0  0  0  0  0
   10.7244   13.7916   23.5106 C   0  0  0  0  0  0  0  0  0  0  0  0
   10.5161   14.4535   24.5254 O   0  0  0  0  0  0  0  0  0  0  0  0
   10.1634   12.5587   23.2622 N   0  0  0  0  0  0  0  0  0  0  0  0
    9.2072   11.9173   23.9822 C   0  0  0  0  0  0  0  0  0  0  0  0
    8.2489   12.2874   24.8817 C   0  0  0  0  0  0  0  0  0  0  0  0
    7.5522   11.0850   25.1891 C   0  0  0  0  0  0  0  0  0  0  0  0
    6.3433   10.9722   26.0698 C   0  0  0  0  0  0  0  0  0  0  0  0
    5.4322   12.1728   25.9204 C   0  0  0  0  0  0  0  0  0  0  0  0
    6.6471   10.8883   27.5374 C   0  0  0  0  0  0  0  0  0  0  0  0
    5.5413    9.7380   25.8084 C   0  0  0  0  0  0  0  0  0  0  0  0
    8.0731   10.0348   24.5193 N   0  0  0  0  0  0  0  0  0  0  0  0
    9.0693   10.5772   23.7939 N   0  0  0  0  0  0  0  0  0  0  0  0
    9.7638    9.9596   22.6911 C   0  0  0  0  0  0  0  0  0  0  0  0
   10.0806    8.5487   22.7974 C   0  0  0  0  0  0  0  0  0  0  0  0
   11.0358    8.0731   23.3800 O   0  0  0  0  0  0  0  0  0  0  0  0
    9.2364    7.9120   21.9603 O   0  0  0  0  0  0  0  0  0  0  0  0
   10.9869   14.2702   21.0785 C   0  0  0  0  0  0  0  0  0  0  0  0
   10.4014   15.4862   20.9843 F   0  0  0  0  0  0  0  0  0  0  0  0
   11.7778   14.1439   19.9994 F   0  0  0  0  0  0  0  0  0  0  0  0
    9.9533   13.4144   20.9618 F   0  0  0  0  0  0  0  0  0  0  0  0
  1  2  1  0
  2  3  1  0
  2  4  1  0
  4  5  1  6
  4  6  1  0
  6  7  2  0
  6  8  1  0
  8  9  1  0
  9 10  2  0
 10 11  1  0
 11 12  1  0
 12 13  1  0
 12 14  1  0
 12 15  1  0
 11 16  2  0
 16 17  1  0
 17 18  1  0
 18 19  1  0
 19 20  2  0
 19 21  1  0
  4 22  1  0
 22 23  1  0
 22 24  1  0
 22 25  1  0
 17  9  1  0
M  END
$$$$

     RDKit          3D

 22 23  0  0  0  0  0  0  0  0999 V2000
    9.4451    8.9774   23.6626 C   0  0  0  0  0  0  0  0  0  0  0  0
    9.2093   10.3103   24.2007 N   0  0  0  0  0  0  0  0  0  0  0  0
    9.4685   11.1842   23.0798 C   0  0  0  0  0  0  0  0  0  0  0  0
    7.8508   10.3558   24.6960 C   0  0  0  0  0  0  0  0  0  0  0  0
    7.3142   11.6151   25.3511 C   0  0  2  0  0  0  0  0  0  0  0  0
    7.9478   11.9193   26.5824 O   0  0  0  0  0  0  0  0  0  0  0  0
    5.9536   11.4068   25.9380 C   0  0  0  0  0  0  0  0  0  0  0  0
    5.0283   12.1941   25.7562 O   0  0  0  0  0  0  0  0  0  0  0  0
    5.8887   10.2929   26.7730 N   0  0  0  0  0  0  0  0  0  0  0  0
    4.7963    9.9992   27.5564 C   0  0  0  0  0  0  0  0  0  0  0  0
    4.3831    8.7823   28.0185 C   0  0  0  0  0  0  0  0  0  0  0  0
    3.0494    8.9574   28.3525 C   0  0  0  0  0  0  0  0  0  0  0  0
    2.6323   10.2139   28.2759 N   0  0  0  0  0  0  0  0  0  0  0  0
    3.7866   10.8527   27.9431 N   0  0  0  0  0  0  0  0  0  0  0  0
    3.7795   12.2973   27.9391 C   0  0  0  0  0  0  0  0  0  0  0  0
    2.3118    7.6959   28.4322 C   0  0  0  0  0  0  0  0  0  0  0  0
    3.3448    6.6886   27.8560 C   0  0  0  0  0  0  0  0  0  0  0  0
    4.7401    7.3637   27.9476 C   0  0  0  0  0  0  0  0  0  0  0  0
    7.4549   12.8289   24.4782 C   0  0  0  0  0  0  0  0  0  0  0  0
    6.7555   13.9006   24.9046 F   0  0  0  0  0  0  0  0  0  0  0  0
    8.7534   13.2485   24.4582 F   0  0  0  0  0  0  0  0  0  0  0  0
    7.1244   12.6026   23.1862 F   0  0  0  0  0  0  0  0  0  0  0  0
  1  2  1  0
  2  3  1  0
  2  4  1  0
  4  5  1  0
  5  6  1  1
  5  7  1  0
  7  8  2  0
  7  9  1  0
  9 10  1  0
 10 11  2  0
 11 12  1  0
 12 13  2  0
 13 14  1  0
 14 15  1  0
 12 16  1  0
 16 17  1  0
 17 18  1  0
  5 19  1  0
 19 20  1  0
 19 21  1  0
 19 22  1  0
 14 10  1  0
 18 11  1  0
M  END
$$$$

     RDKit          3D

 22 23  0  0  0  0  0  0  0  0999 V2000
    9.4852    8.9583   23.5573 C   0  0  0  0  0  0  0  0  0  0  0  0
    8.8634   10.2567   23.7449 N   0  0  0  0  0  0  0  0  0  0  0  0
    9.8711   11.2281   23.3710 C   0  0  0  0  0  0  0  0  0  0  0  0
    8.4916   10.4153   25.1440 C   0  0  0  0  0  0  0  0  0  0  0  0
    7.2827   11.2894   25.3772 C   0  0  1  0  0  0  0  0  0  0  0  0
    6.1860   10.5652   24.8860 O   0  0  0  0  0  0  0  0  0  0  0  0
    6.7810   11.4427   26.7948 C   0  0  0  0  0  0  0  0  0  0  0  0
    6.7156   12.5235   27.3780 O   0  0  0  0  0  0  0  0  0  0  0  0
    6.3569   10.2467   27.3526 N   0  0  0  0  0  0  0  0  0  0  0  0
    5.1407   10.0493   27.9665 C   0  0  0  0  0  0  0  0  0  0  0  0
    4.5628    8.8417   28.2397 C   0  0  0  0  0  0  0  0  0  0  0  0
    3.2173    9.1049   28.4227 C   0  0  0  0  0  0  0  0  0  0  0  0
    2.9159   10.3970   28.4271 N   0  0  0  0  0  0  0  0  0  0  0  0
    4.1451   10.9617   28.2405 N   0  0  0  0  0  0  0  0  0  0  0  0
    4.2180   12.4042   28.2447 C   0  0  0  0  0  0  0  0  0  0  0  0
    2.3790    7.9098   28.2894 C   0  0  0  0  0  0  0  0  0  0  0  0
    3.4014    6.8503   27.7854 C   0  0  0  0  0  0  0  0  0  0  0  0
    4.8233    7.4106   28.0660 C   0  0  0  0  0  0  0  0  0  0  0  0
    7.4406   12.6287   24.7013 C   0  0  0  0  0  0  0  0  0  0  0  0
    6.4720   13.5187   25.0071 F   0  0  0  0  0  0  0  0  0  0  0  0
    7.4501   12.5535   23.3442 F   0  0  0  0  0  0  0  0  0  0  0  0
    8.6245   13.2014   25.0530 F   0  0  0  0  0  0  0  0  0  0  0  0
  1  2  1  0
  2  3  1  0
  2  4  1  0
  4  5  1  0
  5  6  1  6
  5  7  1  0
  7  8  2  0
  7  9  1  0
  9 10  1  0
 10 11  2  0
 11 12  1  0
 12 13  2  0
 13 14  1  0
 14 15  1  0
 12 16  1  0
 16 17  1  0
 17 18  1  0
  5 19  1  0
 19 20  1  0
 19 21  1  0
 19 22  1  0
 14 10  1  0
 18 11  1  0
M  END
$$$$

     RDKit          3D

 23 24  0  0  0  0  0  0  0  0999 V2000
   10.8566    8.3930   23.5753 C   0  0  0  0  0  0  0  0  0  0  0  0
    9.7201    9.1684   23.0118 C   0  0  0  0  0  0  0  0  0  0  0  0
    8.8790    8.2205   22.2479 C   0  0  0  0  0  0  0  0  0  0  0  0
   10.3986    9.9336   21.9428 C   0  0  0  0  0  0  0  0  0  0  0  0
    8.9553   10.0040   23.9247 N   0  0  0  0  0  0  0  0  0  0  0  0
    7.9495    9.4822   24.6951 N   0  0  0  0  0  0  0  0  0  0  0  0
    7.4188   10.5138   25.3722 C   0  0  0  0  0  0  0  0  0  0  0  0
    6.2838   10.3783   26.3663 C   0  0  0  0  0  0  0  0  0  0  0  0
    6.5892   10.3417   27.8435 C   0  0  0  0  0  0  0  0  0  0  0  0
    5.6218    9.3785   28.5202 C   0  0  0  0  0  0  0  0  0  0  0  0
    4.4879    9.1876   27.5453 C   0  0  0  0  0  0  0  0  0  0  0  0
    5.1333    9.4194   26.1852 C   0  0  0  0  0  0  0  0  0  0  0  0
    8.0745   11.7258   24.9725 C   0  0  0  0  0  0  0  0  0  0  0  0
    9.0543   11.3773   24.0616 C   0  0  0  0  0  0  0  0  0  0  0  0
   10.0052   12.0816   23.3442 N   0  0  0  0  0  0  0  0  0  0  0  0
   10.4593   13.3666   23.5636 C   0  0  0  0  0  0  0  0  0  0  0  0
   10.1300   14.0756   24.5092 O   0  0  0  0  0  0  0  0  0  0  0  0
   11.3684   13.7849   22.4226 C   0  0  1  0  0  0  0  0  0  0  0  0
   10.6271   14.2281   21.3615 F   0  0  0  0  0  0  0  0  0  0  0  0
   12.3423   14.8485   22.8649 C   0  0  0  0  0  0  0  0  0  0  0  0
   11.7419   15.9772   23.2998 F   0  0  0  0  0  0  0  0  0  0  0  0
   13.1362   14.3853   23.8593 F   0  0  0  0  0  0  0  0  0  0  0  0
   13.1481   15.2257   21.8493 F   0  0  0  0  0  0  0  0  0  0  0  0
  1  2  1  0
  2  3  1  0
  2  4  1  0
  2  5  1  0
  5  6  1  0
  6  7  2  0
  7  8  1  0
  8  9  1  0
  9 10  1  0
 10 11  1  0
 11 12  1  0
  7 13  1  0
 13 14  2  0
 14 15  1  0
 15 16  1  0
 16 17  2  0
 16 18  1  0
 18 19  1  6
 18 20  1  0
 20 21  1  0
 20 22  1  0
 20 23  1  0
 14  5  1  0
 12  8  1  0
M  END
$$$$

     RDKit          3D

 16 17  0  0  0  0  0  0  0  0999 V2000
    9.5979    8.9011   23.2977 C   0  0  0  0  0  0  0  0  0  0  0  0
    8.8906   10.0475   23.9328 C   0  0  0  0  0  0  0  0  0  0  0  0
    7.8800    9.8532   24.8421 C   0  0  0  0  0  0  0  0  0  0  0  0
    7.1739   10.8559   25.4128 N   0  0  0  0  0  0  0  0  0  0  0  0
    7.5099   12.1184   25.0728 C   0  0  0  0  0  0  0  0  0  0  0  0
    8.5345   12.4162   24.2060 C   0  0  0  0  0  0  0  0  0  0  0  0
    9.2372   11.3575   23.6365 C   0  0  0  0  0  0  0  0  0  0  0  0
   10.2648   11.5625   22.7140 N   0  0  0  0  0  0  0  0  0  0  0  0
   11.1568   12.5298   23.0964 N   0  0  0  0  0  0  0  0  0  0  0  0
   11.3277   13.5362   22.1739 C   0  0  0  0  0  0  0  0  0  0  0  0
   10.4799   13.9297   21.3828 O   0  0  0  0  0  0  0  0  0  0  0  0
   12.6816   14.1298   22.3349 C   0  0  2  0  0  0  0  0  0  0  0  0
   12.8195   14.7720   23.6851 C   0  0  0  0  0  0  0  0  0  0  0  0
   12.0163   16.0296   23.6382 C   0  0  0  0  0  0  0  0  0  0  0  0
   12.2124   16.6361   21.9706 S   0  0  0  0  0  0  0  0  0  0  0  0
   12.9649   15.1571   21.2831 C   0  0  0  0  0  0  0  0  0  0  0  0
  1  2  1  0
  2  3  2  0
  3  4  1  0
  4  5  2  0
  5  6  1  0
  6  7  2  0
  7  8  1  0
  8  9  1  0
  9 10  1  0
 10 11  2  0
 12 10  1  6
 12 13  1  0
 13 14  1  0
 14 15  1  0
 15 16  1  0
  7  2  1  0
 16 12  1  0
M  END
$$$$

     RDKit          3D

 16 17  0  0  0  0  0  0  0  0999 V2000
    9.8212    9.0594   23.1340 C   0  0  0  0  0  0  0  0  0  0  0  0
    9.0578   10.1567   23.7936 C   0  0  0  0  0  0  0  0  0  0  0  0
    8.0611    9.8634   24.6965 C   0  0  0  0  0  0  0  0  0  0  0  0
    7.2954   10.7961   25.3093 N   0  0  0  0  0  0  0  0  0  0  0  0
    7.5608   12.0886   25.0287 C   0  0  0  0  0  0  0  0  0  0  0  0
    8.5589   12.4847   24.1695 C   0  0  0  0  0  0  0  0  0  0  0  0
    9.3232   11.5002   23.5454 C   0  0  0  0  0  0  0  0  0  0  0  0
   10.3147   11.8400   22.6156 N   0  0  0  0  0  0  0  0  0  0  0  0
   11.1855   12.7945   23.0829 N   0  0  0  0  0  0  0  0  0  0  0  0
   11.5142   13.8225   22.2241 C   0  0  0  0  0  0  0  0  0  0  0  0
   10.9009   14.1372   21.2089 O   0  0  0  0  0  0  0  0  0  0  0  0
   12.6435   14.6705   22.7297 C   0  0  1  0  0  0  0  0  0  0  0  0
   12.0897   15.9628   23.2531 C   0  0  0  0  0  0  0  0  0  0  0  0
   11.5537   15.6967   24.6436 C   0  0  0  0  0  0  0  0  0  0  0  0
   12.6670   14.5390   25.3998 S   0  0  0  0  0  0  0  0  0  0  0  0
   13.4357   14.0416   23.8523 C   0  0  0  0  0  0  0  0  0  0  0  0
  1  2  1  0
  2  3  2  0
  3  4  1  0
  4  5  2  0
  5  6  1  0
  6  7  2  0
  7  8  1  0
  8  9  1  0
  9 10  1  0
 10 11  2  0
 12 10  1  1
 12 13  1  0
 13 14  1  0
 14 15  1  0
 15 16  1  0
  7  2  1  0
 16 12  1  0
M  END
$$$$

     RDKit          3D

 16 17  0  0  0  0  0  0  0  0999 V2000
    9.5979    8.9011   23.2977 C   0  0  0  0  0  0  0  0  0  0  0  0
    8.8906   10.0475   23.9328 C   0  0  0  0  0  0  0  0  0  0  0  0
    7.8800    9.8532   24.8421 C   0  0  0  0  0  0  0  0  0  0  0  0
    7.1739   10.8559   25.4128 N   0  0  0  0  0  0  0  0  0  0  0  0
    7.5099   12.1184   25.0728 C   0  0  0  0  0  0  0  0  0  0  0  0
    8.5345   12.4162   24.2060 C   0  0  0  0  0  0  0  0  0  0  0  0
    9.2372   11.3575   23.6365 C   0  0  0  0  0  0  0  0  0  0  0  0
   10.2648   11.5625   22.7140 N   0  0  0  0  0  0  0  0  0  0  0  0
   11.1568   12.5298   23.0964 N   0  0  0  0  0  0  0  0  0  0  0  0
   11.3277   13.5362   22.1739 C   0  0  0  0  0  0  0  0  0  0  0  0
   10.4799   13.9297   21.3828 O   0  0  0  0  0  0  0  0  0  0  0  0
   12.6816   14.1298   22.3349 C   0  0  2  0  0  0  0  0  0  0  0  0
   12.8195   14.7720   23.6851 C   0  0  0  0  0  0  0  0  0  0  0  0
   12.0163   16.0296   23.6382 C   0  0  0  0  0  0  0  0  0  0  0  0
   12.2124   16.6361   21.9706 S   0  0  0  0  0  0  0  0  0  0  0  0
   12.9649   15.1571   21.2831 C   0  0  0  0  0  0  0  0  0  0  0  0
  1  2  1  0
  2  3  2  0
  3  4  1  0
  4  5  2  0
  5  6  1  0
  6  7  2  0
  7  8  1  0
  8  9  1  0
  9 10  1  0
 10 11  2  0
 12 10  1  6
 12 13  1  0
 13 14  1  0
 14 15  1  0
 15 16  1  0
  7  2  1  0
 16 12  1  0
M  END
$$$$

     RDKit          3D

 16 17  0  0  0  0  0  0  0  0999 V2000
    9.8212    9.0594   23.1340 C   0  0  0  0  0  0  0  0  0  0  0  0
    9.0578   10.1567   23.7936 C   0  0  0  0  0  0  0  0  0  0  0  0
    8.0611    9.8634   24.6965 C   0  0  0  0  0  0  0  0  0  0  0  0
    7.2954   10.7961   25.3093 N   0  0  0  0  0  0  0  0  0  0  0  0
    7.5608   12.0886   25.0287 C   0  0  0  0  0  0  0  0  0  0  0  0
    8.5589   12.4847   24.1695 C   0  0  0  0  0  0  0  0  0  0  0  0
    9.3232   11.5002   23.5454 C   0  0  0  0  0  0  0  0  0  0  0  0
   10.3147   11.8400   22.6156 N   0  0  0  0  0  0  0  0  0  0  0  0
   11.1855   12.7945   23.0829 N   0  0  0  0  0  0  0  0  0  0  0  0
   11.5142   13.8225   22.2241 C   0  0  0  0  0  0  0  0  0  0  0  0
   10.9009   14.1372   21.2089 O   0  0  0  0  0  0  0  0  0  0  0  0
   12.6435   14.6705   22.7297 C   0  0  1  0  0  0  0  0  0  0  0  0
   12.0897   15.9628   23.2531 C   0  0  0  0  0  0  0  0  0  0  0  0
   11.5537   15.6967   24.6436 C   0  0  0  0  0  0  0  0  0  0  0  0
   12.6670   14.5390   25.3998 S   0  0  0  0  0  0  0  0  0  0  0  0
   13.4357   14.0416   23.8523 C   0  0  0  0  0  0  0  0  0  0  0  0
  1  2  1  0
  2  3  2  0
  3  4  1  0
  4  5  2  0
  5  6  1  0
  6  7  2  0
  7  8  1  0
  8  9  1  0
  9 10  1  0
 10 11  2  0
 12 10  1  1
 12 13  1  0
 13 14  1  0
 14 15  1  0
 15 16  1  0
  7  2  1  0
 16 12  1  0
M  END
$$$$

     RDKit          3D

 17 18  0  0  0  0  0  0  0  0999 V2000
   11.2258    7.8812   23.1637 C   0  0  0  0  0  0  0  0  0  0  0  0
   10.0009    8.4561   23.5825 N   0  0  0  0  0  0  0  0  0  0  0  0
    9.6893    9.6192   22.9993 C   0  0  0  0  0  0  0  0  0  0  0  0
   10.1259    9.9772   21.9243 O   0  0  0  0  0  0  0  0  0  0  0  0
    8.8536   10.4850   23.8084 C   0  0  0  0  0  0  0  0  0  0  0  0
    7.9306    9.9609   24.6828 C   0  0  0  0  0  0  0  0  0  0  0  0
    7.0753   10.7182   25.4095 N   0  0  0  0  0  0  0  0  0  0  0  0
    7.1728   12.0584   25.2676 C   0  0  0  0  0  0  0  0  0  0  0  0
    8.1166   12.6644   24.4750 C   0  0  0  0  0  0  0  0  0  0  0  0
    8.9949   11.8591   23.7633 C   0  0  0  0  0  0  0  0  0  0  0  0
   10.0967   12.4122   23.1079 N   0  0  0  0  0  0  0  0  0  0  0  0
   10.7179   13.5597   23.5260 C   0  0  0  0  0  0  0  0  0  0  0  0
   10.3842   14.1843   24.5407 O   0  0  0  0  0  0  0  0  0  0  0  0
   11.8953   13.9386   22.6370 C   0  0  0  0  0  0  0  0  0  0  0  0
   11.6870   15.0870   21.6539 C   0  0  0  0  0  0  0  0  0  0  0  0
   12.3932   16.0114   22.6348 C   0  0  0  0  0  0  0  0  0  0  0  0
   12.9753   14.7727   23.3199 C   0  0  0  0  0  0  0  0  0  0  0  0
  1  2  1  0
  2  3  1  0
  3  4  2  0
  3  5  1  0
  5  6  2  0
  6  7  1  0
  7  8  2  0
  8  9  1  0
  9 10  2  0
 10 11  1  0
 11 12  1  0
 12 13  2  0
 12 14  1  0
 14 15  1  0
 15 16  1  0
 16 17  1  0
 10  5  1  0
 17 14  1  0
M  END
$$$$

     RDKit          3D

 17 18  0  0  0  0  0  0  0  0999 V2000
   11.2258    7.8812   23.1637 C   0  0  0  0  0  0  0  0  0  0  0  0
   10.0009    8.4561   23.5825 N   0  0  0  0  0  0  0  0  0  0  0  0
    9.6893    9.6192   22.9993 C   0  0  0  0  0  0  0  0  0  0  0  0
   10.1259    9.9772   21.9243 O   0  0  0  0  0  0  0  0  0  0  0  0
    8.8536   10.4850   23.8084 C   0  0  0  0  0  0  0  0  0  0  0  0
    7.9306    9.9609   24.6828 C   0  0  0  0  0  0  0  0  0  0  0  0
    7.0753   10.7182   25.4095 N   0  0  0  0  0  0  0  0  0  0  0  0
    7.1728   12.0584   25.2676 C   0  0  0  0  0  0  0  0  0  0  0  0
    8.1166   12.6644   24.4750 C   0  0  0  0  0  0  0  0  0  0  0  0
    8.9949   11.8591   23.7633 C   0  0  0  0  0  0  0  0  0  0  0  0
   10.0967   12.4122   23.1079 N   0  0  0  0  0  0  0  0  0  0  0  0
   10.7179   13.5597   23.5260 C   0  0  0  0  0  0  0  0  0  0  0  0
   10.3842   14.1843   24.5407 O   0  0  0  0  0  0  0  0  0  0  0  0
   11.8953   13.9386   22.6370 C   0  0  0  0  0  0  0  0  0  0  0  0
   11.6870   15.0870   21.6539 C   0  0  0  0  0  0  0  0  0  0  0  0
   12.3932   16.0114   22.6348 C   0  0  0  0  0  0  0  0  0  0  0  0
   12.9753   14.7727   23.3199 C   0  0  0  0  0  0  0  0  0  0  0  0
  1  2  1  0
  2  3  1  0
  3  4  2  0
  3  5  1  0
  5  6  2  0
  6  7  1  0
  7  8  2  0
  8  9  1  0
  9 10  2  0
 10 11  1  0
 11 12  1  0
 12 13  2  0
 12 14  1  0
 14 15  1  0
 15 16  1  0
 16 17  1  0
 10  5  1  0
 17 14  1  0
M  END
$$$$

     RDKit          3D

 19 20  0  0  0  0  0  0  0  0999 V2000
    1.8006   11.8728   28.5029 C   0  0  0  0  0  0  0  0  0  0  0  0
    3.2965   11.7320   28.3765 C   0  0  2  0  0  0  0  0  0  0  0  0
    3.9829   12.4900   29.4854 C   0  0  0  0  0  0  0  0  0  0  0  0
    5.4876   12.5599   29.3258 C   0  0  0  0  0  0  0  0  0  0  0  0
    6.0128   11.8793   28.0794 C   0  0  0  0  0  0  0  0  0  0  0  0
    5.2247   12.2153   26.8264 C   0  0  2  0  0  0  0  0  0  0  0  0
    5.6934   13.5295   26.2598 C   0  0  0  0  0  0  0  0  0  0  0  0
    5.1295   14.5873   26.5517 O   0  0  0  0  0  0  0  0  0  0  0  0
    6.8100   13.5194   25.4753 N   0  0  0  0  0  0  0  0  0  0  0  0
    7.5542   12.4489   24.9929 C   0  0  0  0  0  0  0  0  0  0  0  0
    8.6308   12.8172   24.2073 C   0  0  0  0  0  0  0  0  0  0  0  0
    9.4214   11.8292   23.6380 C   0  0  0  0  0  0  0  0  0  0  0  0
   10.5149   12.2304   22.8544 N   0  0  0  0  0  0  0  0  0  0  0  0
    9.1026   10.4932   23.8566 C   0  0  0  0  0  0  0  0  0  0  0  0
    9.7726    9.4439   23.1769 C   0  0  0  0  0  0  0  0  0  0  0  0
   10.3065    8.6652   22.5125 N   0  0  0  0  0  0  0  0  0  0  0  0
    8.0413   10.2111   24.6905 C   0  0  0  0  0  0  0  0  0  0  0  0
    7.2582   11.1605   25.2625 N   0  0  0  0  0  0  0  0  0  0  0  0
    3.7307   12.2895   27.0486 C   0  0  0  0  0  0  0  0  0  0  0  0
  2  1  1  1
  2  3  1  0
  3  4  1  0
  4  5  1  0
  5  6  1  0
  6  7  1  1
  7  8  2  0
  7  9  1  0
  9 10  1  0
 10 11  2  0
 11 12  1  0
 12 13  1  0
 12 14  2  0
 14 15  1  0
 15 16  3  0
 14 17  1  0
 17 18  2  0
  6 19  1  0
 19  2  1  0
 18 10  1  0
M  END
$$$$

     RDKit          3D

 19 20  0  0  0  0  0  0  0  0999 V2000
    1.7818   12.7090   28.3246 C   0  0  0  0  0  0  0  0  0  0  0  0
    3.2665   12.9397   28.2051 C   0  0  1  0  0  0  0  0  0  0  0  0
    3.9733   12.4921   29.4598 C   0  0  0  0  0  0  0  0  0  0  0  0
    5.4669   12.7023   29.3355 C   0  0  0  0  0  0  0  0  0  0  0  0
    6.0393   11.9619   28.1445 C   0  0  0  0  0  0  0  0  0  0  0  0
    5.2861   12.2343   26.8579 C   0  0  2  0  0  0  0  0  0  0  0  0
    5.7063   13.5420   26.2407 C   0  0  0  0  0  0  0  0  0  0  0  0
    5.1149   14.5933   26.4958 O   0  0  0  0  0  0  0  0  0  0  0  0
    6.8205   13.5327   25.4526 N   0  0  0  0  0  0  0  0  0  0  0  0
    7.5686   12.4589   24.9835 C   0  0  0  0  0  0  0  0  0  0  0  0
    8.6459   12.8220   24.1972 C   0  0  0  0  0  0  0  0  0  0  0  0
    9.4337   11.8299   23.6318 C   0  0  0  0  0  0  0  0  0  0  0  0
   10.5293   12.2259   22.8489 N   0  0  0  0  0  0  0  0  0  0  0  0
    9.1102   10.4954   23.8535 C   0  0  0  0  0  0  0  0  0  0  0  0
    9.7774    9.4426   23.1768 C   0  0  0  0  0  0  0  0  0  0  0  0
   10.3103    8.6611   22.5149 N   0  0  0  0  0  0  0  0  0  0  0  0
    8.0486   10.2185   24.6887 C   0  0  0  0  0  0  0  0  0  0  0  0
    7.2695   11.1721   25.2587 N   0  0  0  0  0  0  0  0  0  0  0  0
    3.7884   12.1660   27.0244 C   0  0  0  0  0  0  0  0  0  0  0  0
  2  1  1  1
  2  3  1  0
  3  4  1  0
  4  5  1  0
  5  6  1  0
  6  7  1  1
  7  8  2  0
  7  9  1  0
  9 10  1  0
 10 11  2  0
 11 12  1  0
 12 13  1  0
 12 14  2  0
 14 15  1  0
 15 16  3  0
 14 17  1  0
 17 18  2  0
  6 19  1  0
 19  2  1  0
 18 10  1  0
M  END
$$$$

     RDKit          3D

 19 20  0  0  0  0  0  0  0  0999 V2000
    2.5805   11.9156   29.5151 C   0  0  0  0  0  0  0  0  0  0  0  0
    3.5652   12.6891   28.6750 C   0  0  1  0  0  0  0  0  0  0  0  0
    4.7086   13.1773   29.5292 C   0  0  0  0  0  0  0  0  0  0  0  0
    5.8570   12.2006   29.5268 C   0  0  0  0  0  0  0  0  0  0  0  0
    6.4231   11.9886   28.1422 C   0  0  0  0  0  0  0  0  0  0  0  0
    5.4072   12.0359   27.0196 C   0  0  2  0  0  0  0  0  0  0  0  0
    5.5958   13.2964   26.2109 C   0  0  0  0  0  0  0  0  0  0  0  0
    4.8622   14.2751   26.3689 O   0  0  0  0  0  0  0  0  0  0  0  0
    6.6806   13.3485   25.3781 N   0  0  0  0  0  0  0  0  0  0  0  0
    7.5069   12.3211   24.9280 C   0  0  0  0  0  0  0  0  0  0  0  0
    8.5651   12.7304   24.1455 C   0  0  0  0  0  0  0  0  0  0  0  0
    9.4052   11.7805   23.5779 C   0  0  0  0  0  0  0  0  0  0  0  0
   10.4921   12.2378   22.8157 N   0  0  0  0  0  0  0  0  0  0  0  0
    9.1449   10.4301   23.7793 C   0  0  0  0  0  0  0  0  0  0  0  0
    9.8486    9.4173   23.0809 C   0  0  0  0  0  0  0  0  0  0  0  0
   10.4013    8.6683   22.3983 N   0  0  0  0  0  0  0  0  0  0  0  0
    8.1010   10.0993   24.6140 C   0  0  0  0  0  0  0  0  0  0  0  0
    7.2795   11.0156   25.1935 N   0  0  0  0  0  0  0  0  0  0  0  0
    3.9810   11.8522   27.4866 C   0  0  0  0  0  0  0  0  0  0  0  0
  2  1  1  1
  2  3  1  0
  3  4  1  0
  4  5  1  0
  5  6  1  0
  6  7  1  1
  7  8  2  0
  7  9  1  0
  9 10  1  0
 10 11  2  0
 11 12  1  0
 12 13  1  0
 12 14  2  0
 14 15  1  0
 15 16  3  0
 14 17  1  0
 17 18  2  0
  6 19  1  0
 19  2  1  0
 18 10  1  0
M  END
$$$$

     RDKit          3D

 19 20  0  0  0  0  0  0  0  0999 V2000
    2.9205   13.8901   28.7881 C   0  0  0  0  0  0  0  0  0  0  0  0
    3.4834   12.4945   28.8255 C   0  0  2  0  0  0  0  0  0  0  0  0
    4.5485   12.3531   29.8800 C   0  0  0  0  0  0  0  0  0  0  0  0
    5.9113   12.7488   29.3723 C   0  0  0  0  0  0  0  0  0  0  0  0
    6.2797   11.9237   28.1633 C   0  0  0  0  0  0  0  0  0  0  0  0
    5.2988   12.1150   27.0276 C   0  0  2  0  0  0  0  0  0  0  0  0
    5.5719   13.3995   26.2821 C   0  0  0  0  0  0  0  0  0  0  0  0
    4.8835   14.4055   26.4683 O   0  0  0  0  0  0  0  0  0  0  0  0
    6.6687   13.4372   25.4657 N   0  0  0  0  0  0  0  0  0  0  0  0
    7.4735   12.3973   25.0092 C   0  0  0  0  0  0  0  0  0  0  0  0
    8.5405   12.7963   24.2234 C   0  0  0  0  0  0  0  0  0  0  0  0
    9.3627   11.8302   23.6566 C   0  0  0  0  0  0  0  0  0  0  0  0
   10.4456   12.2596   22.8719 N   0  0  0  0  0  0  0  0  0  0  0  0
    9.0811   10.4855   23.8740 C   0  0  0  0  0  0  0  0  0  0  0  0
    9.7748    9.4527   23.1913 C   0  0  0  0  0  0  0  0  0  0  0  0
   10.3265    8.6843   22.5291 N   0  0  0  0  0  0  0  0  0  0  0  0
    8.0301   10.1746   24.7105 C   0  0  0  0  0  0  0  0  0  0  0  0
    7.2205   11.1008   25.2834 N   0  0  0  0  0  0  0  0  0  0  0  0
    3.8515   11.9906   27.4510 C   0  0  0  0  0  0  0  0  0  0  0  0
  2  1  1  6
  2  3  1  0
  3  4  1  0
  4  5  1  0
  5  6  1  0
  6  7  1  1
  7  8  2  0
  7  9  1  0
  9 10  1  0
 10 11  2  0
 11 12  1  0
 12 13  1  0
 12 14  2  0
 14 15  1  0
 15 16  3  0
 14 17  1  0
 17 18  2  0
  6 19  1  0
 19  2  1  0
 18 10  1  0
M  END
$$$$

     RDKit          3D

 19 20  0  0  0  0  0  0  0  0999 V2000
    1.8006   11.8728   28.5029 C   0  0  0  0  0  0  0  0  0  0  0  0
    3.2965   11.7320   28.3765 C   0  0  2  0  0  0  0  0  0  0  0  0
    3.9829   12.4900   29.4854 C   0  0  0  0  0  0  0  0  0  0  0  0
    5.4876   12.5599   29.3258 C   0  0  0  0  0  0  0  0  0  0  0  0
    6.0128   11.8793   28.0794 C   0  0  0  0  0  0  0  0  0  0  0  0
    5.2247   12.2153   26.8264 C   0  0  2  0  0  0  0  0  0  0  0  0
    5.6934   13.5295   26.2598 C   0  0  0  0  0  0  0  0  0  0  0  0
    5.1295   14.5873   26.5517 O   0  0  0  0  0  0  0  0  0  0  0  0
    6.8100   13.5194   25.4753 N   0  0  0  0  0  0  0  0  0  0  0  0
    7.5542   12.4489   24.9929 C   0  0  0  0  0  0  0  0  0  0  0  0
    8.6308   12.8172   24.2073 C   0  0  0  0  0  0  0  0  0  0  0  0
    9.4214   11.8292   23.6380 C   0  0  0  0  0  0  0  0  0  0  0  0
   10.5149   12.2304   22.8544 N   0  0  0  0  0  0  0  0  0  0  0  0
    9.1026   10.4932   23.8566 C   0  0  0  0  0  0  0  0  0  0  0  0
    9.7726    9.4439   23.1769 C   0  0  0  0  0  0  0  0  0  0  0  0
   10.3065    8.6652   22.5125 N   0  0  0  0  0  0  0  0  0  0  0  0
    8.0413   10.2111   24.6905 C   0  0  0  0  0  0  0  0  0  0  0  0
    7.2582   11.1605   25.2625 N   0  0  0  0  0  0  0  0  0  0  0  0
    3.7307   12.2895   27.0486 C   0  0  0  0  0  0  0  0  0  0  0  0
  2  1  1  1
  2  3  1  0
  3  4  1  0
  4  5  1  0
  5  6  1  0
  6  7  1  1
  7  8  2  0
  7  9  1  0
  9 10  1  0
 10 11  2  0
 11 12  1  0
 12 13  1  0
 12 14  2  0
 14 15  1  0
 15 16  3  0
 14 17  1  0
 17 18  2  0
  6 19  1  0
 19  2  1  0
 18 10  1  0
M  END
$$$$

     RDKit          3D

 19 20  0  0  0  0  0  0  0  0999 V2000
    1.7818   12.7090   28.3246 C   0  0  0  0  0  0  0  0  0  0  0  0
    3.2665   12.9397   28.2051 C   0  0  1  0  0  0  0  0  0  0  0  0
    3.9733   12.4921   29.4598 C   0  0  0  0  0  0  0  0  0  0  0  0
    5.4669   12.7023   29.3355 C   0  0  0  0  0  0  0  0  0  0  0  0
    6.0393   11.9619   28.1445 C   0  0  0  0  0  0  0  0  0  0  0  0
    5.2861   12.2343   26.8579 C   0  0  2  0  0  0  0  0  0  0  0  0
    5.7063   13.5420   26.2407 C   0  0  0  0  0  0  0  0  0  0  0  0
    5.1149   14.5933   26.4958 O   0  0  0  0  0  0  0  0  0  0  0  0
    6.8205   13.5327   25.4526 N   0  0  0  0  0  0  0  0  0  0  0  0
    7.5686   12.4589   24.9835 C   0  0  0  0  0  0  0  0  0  0  0  0
    8.6459   12.8220   24.1972 C   0  0  0  0  0  0  0  0  0  0  0  0
    9.4337   11.8299   23.6318 C   0  0  0  0  0  0  0  0  0  0  0  0
   10.5293   12.2259   22.8489 N   0  0  0  0  0  0  0  0  0  0  0  0
    9.1102   10.4954   23.8535 C   0  0  0  0  0  0  0  0  0  0  0  0
    9.7774    9.4426   23.1768 C   0  0  0  0  0  0  0  0  0  0  0  0
   10.3103    8.6611   22.5149 N   0  0  0  0  0  0  0  0  0  0  0  0
    8.0486   10.2185   24.6887 C   0  0  0  0  0  0  0  0  0  0  0  0
    7.2695   11.1721   25.2587 N   0  0  0  0  0  0  0  0  0  0  0  0
    3.7884   12.1660   27.0244 C   0  0  0  0  0  0  0  0  0  0  0  0
  2  1  1  1
  2  3  1  0
  3  4  1  0
  4  5  1  0
  5  6  1  0
  6  7  1  1
  7  8  2  0
  7  9  1  0
  9 10  1  0
 10 11  2  0
 11 12  1  0
 12 13  1  0
 12 14  2  0
 14 15  1  0
 15 16  3  0
 14 17  1  0
 17 18  2  0
  6 19  1  0
 19  2  1  0
 18 10  1  0
M  END
$$$$

     RDKit          3D

 19 20  0  0  0  0  0  0  0  0999 V2000
    2.5805   11.9156   29.5151 C   0  0  0  0  0  0  0  0  0  0  0  0
    3.5652   12.6891   28.6750 C   0  0  1  0  0  0  0  0  0  0  0  0
    4.7086   13.1773   29.5292 C   0  0  0  0  0  0  0  0  0  0  0  0
    5.8570   12.2006   29.5268 C   0  0  0  0  0  0  0  0  0  0  0  0
    6.4231   11.9886   28.1422 C   0  0  0  0  0  0  0  0  0  0  0  0
    5.4072   12.0359   27.0196 C   0  0  2  0  0  0  0  0  0  0  0  0
    5.5958   13.2964   26.2109 C   0  0  0  0  0  0  0  0  0  0  0  0
    4.8622   14.2751   26.3689 O   0  0  0  0  0  0  0  0  0  0  0  0
    6.6806   13.3485   25.3781 N   0  0  0  0  0  0  0  0  0  0  0  0
    7.5069   12.3211   24.9280 C   0  0  0  0  0  0  0  0  0  0  0  0
    8.5651   12.7304   24.1455 C   0  0  0  0  0  0  0  0  0  0  0  0
    9.4052   11.7805   23.5779 C   0  0  0  0  0  0  0  0  0  0  0  0
   10.4921   12.2378   22.8157 N   0  0  0  0  0  0  0  0  0  0  0  0
    9.1449   10.4301   23.7793 C   0  0  0  0  0  0  0  0  0  0  0  0
    9.8486    9.4173   23.0809 C   0  0  0  0  0  0  0  0  0  0  0  0
   10.4013    8.6683   22.3983 N   0  0  0  0  0  0  0  0  0  0  0  0
    8.1010   10.0993   24.6140 C   0  0  0  0  0  0  0  0  0  0  0  0
    7.2795   11.0156   25.1935 N   0  0  0  0  0  0  0  0  0  0  0  0
    3.9810   11.8522   27.4866 C   0  0  0  0  0  0  0  0  0  0  0  0
  2  1  1  1
  2  3  1  0
  3  4  1  0
  4  5  1  0
  5  6  1  0
  6  7  1  1
  7  8  2  0
  7  9  1  0
  9 10  1  0
 10 11  2  0
 11 12  1  0
 12 13  1  0
 12 14  2  0
 14 15  1  0
 15 16  3  0
 14 17  1  0
 17 18  2  0
  6 19  1  0
 19  2  1  0
 18 10  1  0
M  END
$$$$

     RDKit          3D

 19 20  0  0  0  0  0  0  0  0999 V2000
    2.9205   13.8901   28.7881 C   0  0  0  0  0  0  0  0  0  0  0  0
    3.4834   12.4945   28.8255 C   0  0  2  0  0  0  0  0  0  0  0  0
    4.5485   12.3531   29.8800 C   0  0  0  0  0  0  0  0  0  0  0  0
    5.9113   12.7488   29.3723 C   0  0  0  0  0  0  0  0  0  0  0  0
    6.2797   11.9237   28.1633 C   0  0  0  0  0  0  0  0  0  0  0  0
    5.2988   12.1150   27.0276 C   0  0  2  0  0  0  0  0  0  0  0  0
    5.5719   13.3995   26.2821 C   0  0  0  0  0  0  0  0  0  0  0  0
    4.8835   14.4055   26.4683 O   0  0  0  0  0  0  0  0  0  0  0  0
    6.6687   13.4372   25.4657 N   0  0  0  0  0  0  0  0  0  0  0  0
    7.4735   12.3973   25.0092 C   0  0  0  0  0  0  0  0  0  0  0  0
    8.5405   12.7963   24.2234 C   0  0  0  0  0  0  0  0  0  0  0  0
    9.3627   11.8302   23.6566 C   0  0  0  0  0  0  0  0  0  0  0  0
   10.4456   12.2596   22.8719 N   0  0  0  0  0  0  0  0  0  0  0  0
    9.0811   10.4855   23.8740 C   0  0  0  0  0  0  0  0  0  0  0  0
    9.7748    9.4527   23.1913 C   0  0  0  0  0  0  0  0  0  0  0  0
   10.3265    8.6843   22.5291 N   0  0  0  0  0  0  0  0  0  0  0  0
    8.0301   10.1746   24.7105 C   0  0  0  0  0  0  0  0  0  0  0  0
    7.2205   11.1008   25.2834 N   0  0  0  0  0  0  0  0  0  0  0  0
    3.8515   11.9906   27.4510 C   0  0  0  0  0  0  0  0  0  0  0  0
  2  1  1  6
  2  3  1  0
  3  4  1  0
  4  5  1  0
  5  6  1  0
  6  7  1  1
  7  8  2  0
  7  9  1  0
  9 10  1  0
 10 11  2  0
 11 12  1  0
 12 13  1  0
 12 14  2  0
 14 15  1  0
 15 16  3  0
 14 17  1  0
 17 18  2  0
  6 19  1  0
 19  2  1  0
 18 10  1  0
M  END
$$$$

     RDKit          3D

 25 26  0  0  0  0  0  0  0  0999 V2000
    4.9494   12.2341   26.3641 C   0  0  0  0  0  0  0  0  0  0  0  0
    6.0570   11.2056   26.3569 C   0  0  0  0  0  0  0  0  0  0  0  0
    6.5013   11.0338   27.7820 C   0  0  0  0  0  0  0  0  0  0  0  0
    5.4669    9.8758   25.9827 C   0  0  0  0  0  0  0  0  0  0  0  0
    7.1572   11.6213   25.4460 C   0  0  0  0  0  0  0  0  0  0  0  0
    7.6592   12.9356   25.2102 C   0  0  0  0  0  0  0  0  0  0  0  0
    8.6432   12.7944   24.2650 C   0  0  0  0  0  0  0  0  0  0  0  0
    9.4255   13.7102   23.5892 N   0  0  0  0  0  0  0  0  0  0  0  0
   10.7916   13.5051   23.4750 C   0  0  0  0  0  0  0  0  0  0  0  0
   11.4774   12.8354   24.2288 O   0  0  0  0  0  0  0  0  0  0  0  0
   11.3960   14.2153   22.3037 C   0  0  0  0  0  0  0  0  0  0  0  0
   10.8506   14.0902   21.2154 O   0  0  0  0  0  0  0  0  0  0  0  0
   12.4837   15.1569   22.6836 C   0  0  0  0  0  0  0  0  0  0  0  0
   13.3399   14.6349   23.5963 F   0  0  0  0  0  0  0  0  0  0  0  0
   11.9407   16.2724   23.2537 F   0  0  0  0  0  0  0  0  0  0  0  0
   13.2142   15.6042   21.6379 F   0  0  0  0  0  0  0  0  0  0  0  0
    8.5902   11.4865   23.9235 N   0  0  0  0  0  0  0  0  0  0  0  0
    9.1111   11.0226   22.6734 C   0  0  0  0  0  0  0  0  0  0  0  0
    9.8648    9.8281   22.8859 C   0  0  0  0  0  0  0  0  0  0  0  0
    9.4841    8.6198   22.4753 C   0  0  0  0  0  0  0  0  0  0  0  0
   10.4110    7.6871   22.7747 C   0  0  0  0  0  0  0  0  0  0  0  0
   11.5644    7.7257   23.3980 N   0  0  0  0  0  0  0  0  0  0  0  0
   11.7801    8.8974   23.8628 C   0  0  0  0  0  0  0  0  0  0  0  0
   10.9829    9.9661   23.6063 C   0  0  0  0  0  0  0  0  0  0  0  0
    7.7575   10.7311   24.6520 N   0  0  0  0  0  0  0  0  0  0  0  0
  1  2  1  0
  2  3  1  0
  2  4  1  0
  2  5  1  0
  5  6  1  0
  6  7  2  0
  7  8  1  0
  8  9  1  0
  9 10  2  0
  9 11  1  0
 11 12  2  0
 11 13  1  0
 13 14  1  0
 13 15  1  0
 13 16  1  0
  7 17  1  0
 17 18  1  0
 18 19  1  0
 19 20  2  0
 20 21  1  0
 21 22  2  0
 22 23  1  0
 23 24  2  0
 17 25  1  0
 25  5  2  0
 24 19  1  0
M  END
$$$$

     RDKit          3D

 16 16  0  0  0  0  0  0  0  0999 V2000
    9.8223    9.0068   23.1575 C   0  0  0  0  0  0  0  0  0  0  0  0
    9.0803   10.1276   23.8014 C   0  0  0  0  0  0  0  0  0  0  0  0
    8.0454    9.8697   24.6714 C   0  0  0  0  0  0  0  0  0  0  0  0
    7.2934   10.8286   25.2595 N   0  0  0  0  0  0  0  0  0  0  0  0
    7.6092   12.1107   24.9804 C   0  0  0  0  0  0  0  0  0  0  0  0
    8.6578   12.4703   24.1647 C   0  0  0  0  0  0  0  0  0  0  0  0
    9.4142   11.4594   23.5748 C   0  0  0  0  0  0  0  0  0  0  0  0
   10.4843   11.7480   22.7163 N   0  0  0  0  0  0  0  0  0  0  0  0
   11.3330   12.7295   23.1873 N   0  0  0  0  0  0  0  0  0  0  0  0
   11.4156   13.8781   22.4319 C   0  0  0  0  0  0  0  0  0  0  0  0
   10.6621   14.1664   21.5061 O   0  0  0  0  0  0  0  0  0  0  0  0
   12.5401   14.7787   22.8689 C   0  0  1  0  0  0  0  0  0  0  0  0
   12.2283   16.1868   22.4359 C   0  0  0  0  0  0  0  0  0  0  0  0
   12.8967   14.7699   24.3300 C   0  0  0  0  0  0  0  0  0  0  0  0
   13.9797   13.8131   24.7157 C   0  0  0  0  0  0  0  0  0  0  0  0
   11.7848   14.8211   25.3323 C   0  0  0  0  0  0  0  0  0  0  0  0
  1  2  1  0
  2  3  2  0
  3  4  1  0
  4  5  2  0
  5  6  1  0
  6  7  2  0
  7  8  1  0
  8  9  1  0
  9 10  1  0
 10 11  2  0
 10 12  1  0
 12 13  1  1
 12 14  1  0
 14 15  1  0
 14 16  1  0
  7  2  1  0
M  END
$$$$

     RDKit          3D

 16 16  0  0  0  0  0  0  0  0999 V2000
    9.8223    9.0068   23.1575 C   0  0  0  0  0  0  0  0  0  0  0  0
    9.0803   10.1276   23.8014 C   0  0  0  0  0  0  0  0  0  0  0  0
    8.0454    9.8697   24.6714 C   0  0  0  0  0  0  0  0  0  0  0  0
    7.2934   10.8286   25.2595 N   0  0  0  0  0  0  0  0  0  0  0  0
    7.6092   12.1107   24.9804 C   0  0  0  0  0  0  0  0  0  0  0  0
    8.6578   12.4703   24.1647 C   0  0  0  0  0  0  0  0  0  0  0  0
    9.4142   11.4594   23.5748 C   0  0  0  0  0  0  0  0  0  0  0  0
   10.4843   11.7480   22.7163 N   0  0  0  0  0  0  0  0  0  0  0  0
   11.3330   12.7295   23.1873 N   0  0  0  0  0  0  0  0  0  0  0  0
   11.4156   13.8781   22.4319 C   0  0  0  0  0  0  0  0  0  0  0  0
   10.6621   14.1664   21.5061 O   0  0  0  0  0  0  0  0  0  0  0  0
   12.5401   14.7787   22.8689 C   0  0  1  0  0  0  0  0  0  0  0  0
   12.2283   16.1868   22.4359 C   0  0  0  0  0  0  0  0  0  0  0  0
   12.8967   14.7699   24.3300 C   0  0  0  0  0  0  0  0  0  0  0  0
   13.9797   13.8131   24.7157 C   0  0  0  0  0  0  0  0  0  0  0  0
   11.7848   14.8211   25.3323 C   0  0  0  0  0  0  0  0  0  0  0  0
  1  2  1  0
  2  3  2  0
  3  4  1  0
  4  5  2  0
  5  6  1  0
  6  7  2  0
  7  8  1  0
  8  9  1  0
  9 10  1  0
 10 11  2  0
 10 12  1  0
 12 13  1  1
 12 14  1  0
 14 15  1  0
 14 16  1  0
  7  2  1  0
M  END
$$$$

     RDKit          3D

 20 20  0  0  0  0  0  0  0  0999 V2000
    4.9661    8.7143   28.6140 C   0  0  0  0  0  0  0  0  0  0  0  0
    4.9889   10.0165   27.8517 C   0  0  0  0  0  0  0  0  0  0  0  0
    6.0571    9.9820   26.9165 O   0  0  0  0  0  0  0  0  0  0  0  0
    6.2240   11.1512   26.2380 C   0  0  0  0  0  0  0  0  0  0  0  0
    5.5188   12.1374   26.4410 O   0  0  0  0  0  0  0  0  0  0  0  0
    7.3356   11.0995   25.2660 C   0  0  0  0  0  0  0  0  0  0  0  0
    7.8991    9.9334   24.8935 N   0  0  0  0  0  0  0  0  0  0  0  0
    8.8736   10.2696   24.0334 N   0  0  0  0  0  0  0  0  0  0  0  0
    9.6814    9.2223   23.4351 C   0  0  0  0  0  0  0  0  0  0  0  0
    9.0024   11.6154   23.8419 C   0  0  0  0  0  0  0  0  0  0  0  0
   10.0187   12.1308   23.0559 N   0  0  0  0  0  0  0  0  0  0  0  0
   10.6795   13.3038   23.3943 C   0  0  0  0  0  0  0  0  0  0  0  0
   10.5676   13.8863   24.4682 O   0  0  0  0  0  0  0  0  0  0  0  0
   11.5500   13.7707   22.2707 C   0  0  0  0  0  0  0  0  0  0  0  0
   12.4386   14.8900   22.7205 C   0  0  0  0  0  0  0  0  0  0  0  0
   11.7473   15.9573   23.1732 F   0  0  0  0  0  0  0  0  0  0  0  0
   13.1782   15.3460   21.6884 F   0  0  0  0  0  0  0  0  0  0  0  0
   13.2819   14.4784   23.6898 F   0  0  0  0  0  0  0  0  0  0  0  0
    7.9597   12.1635   24.5623 C   0  0  0  0  0  0  0  0  0  0  0  0
    7.3871   13.9465   24.6091 Br  0  0  0  0  0  0  0  0  0  0  0  0
  1  2  1  0
  2  3  1  0
  3  4  1  0
  4  5  2  0
  4  6  1  0
  6  7  2  0
  7  8  1  0
  8  9  1  0
  8 10  1  0
 10 11  1  0
 11 12  1  0
 12 13  2  0
 12 14  1  0
 14 15  1  0
 15 16  1  0
 15 17  1  0
 15 18  1  0
 10 19  2  0
 19 20  1  0
 19  6  1  0
M  END
$$$$

     RDKit          3D

 19 20  0  0  0  0  0  0  0  0999 V2000
    1.9249   11.9154   28.3769 C   0  0  0  0  0  0  0  0  0  0  0  0
    3.4178   11.7377   28.2546 C   0  0  2  0  0  0  0  0  0  0  0  0
    4.1163   12.4586   29.3800 C   0  0  0  0  0  0  0  0  0  0  0  0
    5.6227   12.4925   29.2234 C   0  0  0  0  0  0  0  0  0  0  0  0
    6.1343   11.8000   27.9762 C   0  0  0  0  0  0  0  0  0  0  0  0
    5.3763   12.1806   26.7164 C   0  0  2  0  0  0  0  0  0  0  0  0
    5.8924   13.4968   26.1937 C   0  0  0  0  0  0  0  0  0  0  0  0
    5.3323   14.5572   26.4819 O   0  0  0  0  0  0  0  0  0  0  0  0
    7.0580   13.4916   25.4752 N   0  0  0  0  0  0  0  0  0  0  0  0
    7.8293   12.4810   24.8914 C   0  0  0  0  0  0  0  0  0  0  0  0
    7.4900   11.1439   24.9311 C   0  0  0  0  0  0  0  0  0  0  0  0
    8.3335   10.2376   24.2983 C   0  0  0  0  0  0  0  0  0  0  0  0
    8.0584    8.8815   24.4278 N   0  0  0  0  0  0  0  0  0  0  0  0
    9.3915   10.6116   23.5560 N   0  0  0  0  0  0  0  0  0  0  0  0
    9.7408   11.8972   23.5677 C   0  0  0  0  0  0  0  0  0  0  0  0
    9.0250   12.8399   24.2663 C   0  0  0  0  0  0  0  0  0  0  0  0
    9.7018   14.0320   24.6117 C   0  0  0  0  0  0  0  0  0  0  0  0
   10.2816   14.9185   25.0820 N   0  0  0  0  0  0  0  0  0  0  0  0
    3.8810   12.2981   26.9356 C   0  0  0  0  0  0  0  0  0  0  0  0
  2  1  1  1
  2  3  1  0
  3  4  1  0
  4  5  1  0
  5  6  1  0
  6  7  1  1
  7  8  2  0
  7  9  1  0
  9 10  1  0
 10 11  2  0
 11 12  1  0
 12 13  1  0
 12 14  2  0
 14 15  1  0
 15 16  2  0
 16 17  1  0
 17 18  3  0
  6 19  1  0
 19  2  1  0
 16 10  1  0
M  END
$$$$

     RDKit          3D

 19 20  0  0  0  0  0  0  0  0999 V2000
    1.9253   12.7861   28.2169 C   0  0  0  0  0  0  0  0  0  0  0  0
    3.4190   12.9613   28.1065 C   0  0  1  0  0  0  0  0  0  0  0  0
    4.1004   12.4418   29.3470 C   0  0  0  0  0  0  0  0  0  0  0  0
    5.6013   12.5948   29.2296 C   0  0  0  0  0  0  0  0  0  0  0  0
    6.1446   11.8622   28.0193 C   0  0  0  0  0  0  0  0  0  0  0  0
    5.4215   12.2115   26.7332 C   0  0  2  0  0  0  0  0  0  0  0  0
    5.9127   13.5210   26.1729 C   0  0  0  0  0  0  0  0  0  0  0  0
    5.3387   14.5813   26.4295 O   0  0  0  0  0  0  0  0  0  0  0  0
    7.0792   13.5095   25.4550 N   0  0  0  0  0  0  0  0  0  0  0  0
    7.8464   12.4895   24.8817 C   0  0  0  0  0  0  0  0  0  0  0  0
    7.4968   11.1552   24.9282 C   0  0  0  0  0  0  0  0  0  0  0  0
    8.3331   10.2395   24.2997 C   0  0  0  0  0  0  0  0  0  0  0  0
    8.0484    8.8863   24.4368 N   0  0  0  0  0  0  0  0  0  0  0  0
    9.3932   10.6017   23.5547 N   0  0  0  0  0  0  0  0  0  0  0  0
    9.7521   11.8847   23.5594 C   0  0  0  0  0  0  0  0  0  0  0  0
    9.0442   12.8362   24.2539 C   0  0  0  0  0  0  0  0  0  0  0  0
    9.7305   14.0250   24.5912 C   0  0  0  0  0  0  0  0  0  0  0  0
   10.3195   14.9093   25.0541 N   0  0  0  0  0  0  0  0  0  0  0  0
    3.9182   12.2159   26.8956 C   0  0  0  0  0  0  0  0  0  0  0  0
  2  1  1  1
  2  3  1  0
  3  4  1  0
  4  5  1  0
  5  6  1  0
  6  7  1  1
  7  8  2  0
  7  9  1  0
  9 10  1  0
 10 11  2  0
 11 12  1  0
 12 13  1  0
 12 14  2  0
 14 15  1  0
 15 16  2  0
 16 17  1  0
 17 18  3  0
  6 19  1  0
 19  2  1  0
 16 10  1  0
M  END
$$$$

     RDKit          3D

 19 20  0  0  0  0  0  0  0  0999 V2000
   10.1914   15.4991   19.7870 C   0  0  0  0  0  0  0  0  0  0  0  0
   10.7999   15.2203   21.1371 C   0  0  2  0  0  0  0  0  0  0  0  0
   11.7568   16.3010   21.5733 C   0  0  0  0  0  0  0  0  0  0  0  0
   12.2209   16.0431   22.9756 C   0  0  0  0  0  0  0  0  0  0  0  0
   12.9676   14.7386   23.0238 C   0  0  0  0  0  0  0  0  0  0  0  0
   12.1599   13.5974   22.4581 C   0  0  1  0  0  0  0  0  0  0  0  0
   11.0920   13.2000   23.4334 C   0  0  0  0  0  0  0  0  0  0  0  0
   10.8977   13.7734   24.5077 O   0  0  0  0  0  0  0  0  0  0  0  0
   10.3942   12.0884   23.0117 N   0  0  0  0  0  0  0  0  0  0  0  0
    9.2675   11.6239   23.6933 C   0  0  0  0  0  0  0  0  0  0  0  0
    8.4176   12.5357   24.3091 C   0  0  0  0  0  0  0  0  0  0  0  0
    7.3868   12.0739   25.0927 C   0  0  0  0  0  0  0  0  0  0  0  0
    6.5553   13.0277   25.7126 N   0  0  0  0  0  0  0  0  0  0  0  0
    7.1978   10.7467   25.2863 N   0  0  0  0  0  0  0  0  0  0  0  0
    8.0222    9.8781   24.6440 C   0  0  0  0  0  0  0  0  0  0  0  0
    9.0393   10.2654   23.8087 C   0  0  0  0  0  0  0  0  0  0  0  0
    9.7900    9.3098   23.0850 C   0  0  0  0  0  0  0  0  0  0  0  0
   10.3904    8.6151   22.3868 N   0  0  0  0  0  0  0  0  0  0  0  0
   11.5750   13.9363   21.1043 C   0  0  0  0  0  0  0  0  0  0  0  0
  2  1  1  6
  2  3  1  0
  3  4  1  0
  4  5  1  0
  5  6  1  0
  6  7  1  1
  7  8  2  0
  7  9  1  0
  9 10  1  0
 10 11  2  0
 11 12  1  0
 12 13  1  0
 12 14  2  0
 14 15  1  0
 15 16  2  0
 16 17  1  0
 17 18  3  0
  6 19  1  0
 19  2  1  0
 16 10  1  0
M  END
$$$$

     RDKit          3D

 19 20  0  0  0  0  0  0  0  0999 V2000
   11.5661   14.6983   19.2080 C   0  0  0  0  0  0  0  0  0  0  0  0
   12.2160   14.8450   20.5627 C   0  0  1  0  0  0  0  0  0  0  0  0
   11.5244   15.9109   21.3643 C   0  0  0  0  0  0  0  0  0  0  0  0
   12.1666   16.1374   22.7055 C   0  0  0  0  0  0  0  0  0  0  0  0
   12.8976   14.9302   23.2278 C   0  0  0  0  0  0  0  0  0  0  0  0
   12.3147   13.6201   22.7785 C   0  0  1  0  0  0  0  0  0  0  0  0
   11.0726   13.3093   23.5572 C   0  0  0  0  0  0  0  0  0  0  0  0
   10.7202   13.9673   24.5392 O   0  0  0  0  0  0  0  0  0  0  0  0
   10.4568   12.1470   23.1340 N   0  0  0  0  0  0  0  0  0  0  0  0
    9.2897   11.6591   23.7312 C   0  0  0  0  0  0  0  0  0  0  0  0
    8.4079   12.5469   24.3372 C   0  0  0  0  0  0  0  0  0  0  0  0
    7.3615   12.0636   25.0857 C   0  0  0  0  0  0  0  0  0  0  0  0
    6.5073   12.9995   25.7013 N   0  0  0  0  0  0  0  0  0  0  0  0
    7.1834   10.7324   25.2537 N   0  0  0  0  0  0  0  0  0  0  0  0
    8.0299    9.8849   24.6125 C   0  0  0  0  0  0  0  0  0  0  0  0
    9.0630   10.2966   23.8076 C   0  0  0  0  0  0  0  0  0  0  0  0
    9.8209    9.3509   23.0778 C   0  0  0  0  0  0  0  0  0  0  0  0
   10.4119    8.6483   22.3793 N   0  0  0  0  0  0  0  0  0  0  0  0
   12.0842   13.5505   21.2969 C   0  0  0  0  0  0  0  0  0  0  0  0
  2  1  1  6
  2  3  1  0
  3  4  1  0
  4  5  1  0
  5  6  1  0
  6  7  1  1
  7  8  2  0
  7  9  1  0
  9 10  1  0
 10 11  2  0
 11 12  1  0
 12 13  1  0
 12 14  2  0
 14 15  1  0
 15 16  2  0
 16 17  1  0
 17 18  3  0
  6 19  1  0
 19  2  1  0
 16 10  1  0
M  END
$$$$

     RDKit          3D

 19 20  0  0  0  0  0  0  0  0999 V2000
    1.9249   11.9154   28.3769 C   0  0  0  0  0  0  0  0  0  0  0  0
    3.4178   11.7377   28.2546 C   0  0  2  0  0  0  0  0  0  0  0  0
    4.1163   12.4586   29.3800 C   0  0  0  0  0  0  0  0  0  0  0  0
    5.6227   12.4925   29.2234 C   0  0  0  0  0  0  0  0  0  0  0  0
    6.1343   11.8000   27.9762 C   0  0  0  0  0  0  0  0  0  0  0  0
    5.3763   12.1806   26.7164 C   0  0  2  0  0  0  0  0  0  0  0  0
    5.8924   13.4968   26.1937 C   0  0  0  0  0  0  0  0  0  0  0  0
    5.3323   14.5572   26.4819 O   0  0  0  0  0  0  0  0  0  0  0  0
    7.0580   13.4916   25.4752 N   0  0  0  0  0  0  0  0  0  0  0  0
    7.8293   12.4810   24.8914 C   0  0  0  0  0  0  0  0  0  0  0  0
    7.4900   11.1439   24.9311 C   0  0  0  0  0  0  0  0  0  0  0  0
    8.3335   10.2376   24.2983 C   0  0  0  0  0  0  0  0  0  0  0  0
    8.0584    8.8815   24.4278 N   0  0  0  0  0  0  0  0  0  0  0  0
    9.3915   10.6116   23.5560 N   0  0  0  0  0  0  0  0  0  0  0  0
    9.7408   11.8972   23.5677 C   0  0  0  0  0  0  0  0  0  0  0  0
    9.0250   12.8399   24.2663 C   0  0  0  0  0  0  0  0  0  0  0  0
    9.7018   14.0320   24.6117 C   0  0  0  0  0  0  0  0  0  0  0  0
   10.2816   14.9185   25.0820 N   0  0  0  0  0  0  0  0  0  0  0  0
    3.8810   12.2981   26.9356 C   0  0  0  0  0  0  0  0  0  0  0  0
  2  1  1  1
  2  3  1  0
  3  4  1  0
  4  5  1  0
  5  6  1  0
  6  7  1  1
  7  8  2  0
  7  9  1  0
  9 10  1  0
 10 11  2  0
 11 12  1  0
 12 13  1  0
 12 14  2  0
 14 15  1  0
 15 16  2  0
 16 17  1  0
 17 18  3  0
  6 19  1  0
 19  2  1  0
 16 10  1  0
M  END
$$$$

     RDKit          3D

 19 20  0  0  0  0  0  0  0  0999 V2000
    1.9253   12.7861   28.2169 C   0  0  0  0  0  0  0  0  0  0  0  0
    3.4190   12.9613   28.1065 C   0  0  1  0  0  0  0  0  0  0  0  0
    4.1004   12.4418   29.3470 C   0  0  0  0  0  0  0  0  0  0  0  0
    5.6013   12.5948   29.2296 C   0  0  0  0  0  0  0  0  0  0  0  0
    6.1446   11.8622   28.0193 C   0  0  0  0  0  0  0  0  0  0  0  0
    5.4215   12.2115   26.7332 C   0  0  2  0  0  0  0  0  0  0  0  0
    5.9127   13.5210   26.1729 C   0  0  0  0  0  0  0  0  0  0  0  0
    5.3387   14.5813   26.4295 O   0  0  0  0  0  0  0  0  0  0  0  0
    7.0792   13.5095   25.4550 N   0  0  0  0  0  0  0  0  0  0  0  0
    7.8464   12.4895   24.8817 C   0  0  0  0  0  0  0  0  0  0  0  0
    7.4968   11.1552   24.9282 C   0  0  0  0  0  0  0  0  0  0  0  0
    8.3331   10.2395   24.2997 C   0  0  0  0  0  0  0  0  0  0  0  0
    8.0484    8.8863   24.4368 N   0  0  0  0  0  0  0  0  0  0  0  0
    9.3932   10.6017   23.5547 N   0  0  0  0  0  0  0  0  0  0  0  0
    9.7521   11.8847   23.5594 C   0  0  0  0  0  0  0  0  0  0  0  0
    9.0442   12.8362   24.2539 C   0  0  0  0  0  0  0  0  0  0  0  0
    9.7305   14.0250   24.5912 C   0  0  0  0  0  0  0  0  0  0  0  0
   10.3195   14.9093   25.0541 N   0  0  0  0  0  0  0  0  0  0  0  0
    3.9182   12.2159   26.8956 C   0  0  0  0  0  0  0  0  0  0  0  0
  2  1  1  1
  2  3  1  0
  3  4  1  0
  4  5  1  0
  5  6  1  0
  6  7  1  1
  7  8  2  0
  7  9  1  0
  9 10  1  0
 10 11  2  0
 11 12  1  0
 12 13  1  0
 12 14  2  0
 14 15  1  0
 15 16  2  0
 16 17  1  0
 17 18  3  0
  6 19  1  0
 19  2  1  0
 16 10  1  0
M  END
$$$$

     RDKit          3D

 19 20  0  0  0  0  0  0  0  0999 V2000
   10.1914   15.4991   19.7870 C   0  0  0  0  0  0  0  0  0  0  0  0
   10.7999   15.2203   21.1371 C   0  0  2  0  0  0  0  0  0  0  0  0
   11.7568   16.3010   21.5733 C   0  0  0  0  0  0  0  0  0  0  0  0
   12.2209   16.0431   22.9756 C   0  0  0  0  0  0  0  0  0  0  0  0
   12.9676   14.7386   23.0238 C   0  0  0  0  0  0  0  0  0  0  0  0
   12.1599   13.5974   22.4581 C   0  0  1  0  0  0  0  0  0  0  0  0
   11.0920   13.2000   23.4334 C   0  0  0  0  0  0  0  0  0  0  0  0
   10.8977   13.7734   24.5077 O   0  0  0  0  0  0  0  0  0  0  0  0
   10.3942   12.0884   23.0117 N   0  0  0  0  0  0  0  0  0  0  0  0
    9.2675   11.6239   23.6933 C   0  0  0  0  0  0  0  0  0  0  0  0
    8.4176   12.5357   24.3091 C   0  0  0  0  0  0  0  0  0  0  0  0
    7.3868   12.0739   25.0927 C   0  0  0  0  0  0  0  0  0  0  0  0
    6.5553   13.0277   25.7126 N   0  0  0  0  0  0  0  0  0  0  0  0
    7.1978   10.7467   25.2863 N   0  0  0  0  0  0  0  0  0  0  0  0
    8.0222    9.8781   24.6440 C   0  0  0  0  0  0  0  0  0  0  0  0
    9.0393   10.2654   23.8087 C   0  0  0  0  0  0  0  0  0  0  0  0
    9.7900    9.3098   23.0850 C   0  0  0  0  0  0  0  0  0  0  0  0
   10.3904    8.6151   22.3868 N   0  0  0  0  0  0  0  0  0  0  0  0
   11.5750   13.9363   21.1043 C   0  0  0  0  0  0  0  0  0  0  0  0
  2  1  1  6
  2  3  1  0
  3  4  1  0
  4  5  1  0
  5  6  1  0
  6  7  1  1
  7  8  2  0
  7  9  1  0
  9 10  1  0
 10 11  2  0
 11 12  1  0
 12 13  1  0
 12 14  2  0
 14 15  1  0
 15 16  2  0
 16 17  1  0
 17 18  3  0
  6 19  1  0
 19  2  1  0
 16 10  1  0
M  END
$$$$

     RDKit          3D

 19 20  0  0  0  0  0  0  0  0999 V2000
   11.5661   14.6983   19.2080 C   0  0  0  0  0  0  0  0  0  0  0  0
   12.2160   14.8450   20.5627 C   0  0  1  0  0  0  0  0  0  0  0  0
   11.5244   15.9109   21.3643 C   0  0  0  0  0  0  0  0  0  0  0  0
   12.1666   16.1374   22.7055 C   0  0  0  0  0  0  0  0  0  0  0  0
   12.8976   14.9302   23.2278 C   0  0  0  0  0  0  0  0  0  0  0  0
   12.3147   13.6201   22.7785 C   0  0  1  0  0  0  0  0  0  0  0  0
   11.0726   13.3093   23.5572 C   0  0  0  0  0  0  0  0  0  0  0  0
   10.7202   13.9673   24.5392 O   0  0  0  0  0  0  0  0  0  0  0  0
   10.4568   12.1470   23.1340 N   0  0  0  0  0  0  0  0  0  0  0  0
    9.2897   11.6591   23.7312 C   0  0  0  0  0  0  0  0  0  0  0  0
    8.4079   12.5469   24.3372 C   0  0  0  0  0  0  0  0  0  0  0  0
    7.3615   12.0636   25.0857 C   0  0  0  0  0  0  0  0  0  0  0  0
    6.5073   12.9995   25.7013 N   0  0  0  0  0  0  0  0  0  0  0  0
    7.1834   10.7324   25.2537 N   0  0  0  0  0  0  0  0  0  0  0  0
    8.0299    9.8849   24.6125 C   0  0  0  0  0  0  0  0  0  0  0  0
    9.0630   10.2966   23.8076 C   0  0  0  0  0  0  0  0  0  0  0  0
    9.8209    9.3509   23.0778 C   0  0  0  0  0  0  0  0  0  0  0  0
   10.4119    8.6483   22.3793 N   0  0  0  0  0  0  0  0  0  0  0  0
   12.0842   13.5505   21.2969 C   0  0  0  0  0  0  0  0  0  0  0  0
  2  1  1  6
  2  3  1  0
  3  4  1  0
  4  5  1  0
  5  6  1  0
  6  7  1  1
  7  8  2  0
  7  9  1  0
  9 10  1  0
 10 11  2  0
 11 12  1  0
 12 13  1  0
 12 14  2  0
 14 15  1  0
 15 16  2  0
 16 17  1  0
 17 18  3  0
  6 19  1  0
 19  2  1  0
 16 10  1  0
M  END
$$$$

     RDKit          3D

 21 21  0  0  0  0  0  0  0  0999 V2000
   12.4318   15.0488   22.7100 C   0  0  0  0  0  0  0  0  0  0  0  0
   11.5429   13.8892   22.3308 C   0  0  2  0  0  0  0  0  0  0  0  0
   10.6780   14.3597   21.2557 N   0  0  0  0  0  0  0  0  0  0  0  0
   10.6375   13.5223   23.5003 C   0  0  0  0  0  0  0  0  0  0  0  0
   10.5689   14.1495   24.5579 O   0  0  0  0  0  0  0  0  0  0  0  0
    9.9220   12.3580   23.2556 N   0  0  0  0  0  0  0  0  0  0  0  0
    8.8992   11.9311   24.0853 C   0  0  0  0  0  0  0  0  0  0  0  0
    8.0418   12.5990   24.9413 C   0  0  0  0  0  0  0  0  0  0  0  0
    7.2347   11.6026   25.5463 C   0  0  0  0  0  0  0  0  0  0  0  0
    6.2277   11.7293   26.6430 C   0  0  0  0  0  0  0  0  0  0  0  0
    5.2988   12.6841   26.3910 F   0  0  0  0  0  0  0  0  0  0  0  0
    5.5470   10.5793   26.8969 F   0  0  0  0  0  0  0  0  0  0  0  0
    6.8374   12.0725   27.8118 F   0  0  0  0  0  0  0  0  0  0  0  0
    7.5499   10.4038   25.0656 N   0  0  0  0  0  0  0  0  0  0  0  0
    8.5327   10.6096   24.1656 N   0  0  0  0  0  0  0  0  0  0  0  0
    8.9774    9.4956   23.4865 C   0  0  0  0  0  0  0  0  0  0  0  0
    8.3209    8.4808   23.5645 O   0  0  0  0  0  0  0  0  0  0  0  0
   10.2219    9.6670   22.7537 C   0  0  2  0  0  0  0  0  0  0  0  0
   10.0729    9.0031   21.4378 C   0  0  0  0  0  0  0  0  0  0  0  0
   11.1581    8.8397   23.4201 C   0  0  0  0  0  0  0  0  0  0  0  0
   11.9860    8.2021   23.8845 N   0  0  0  0  0  0  0  0  0  0  0  0
  2  1  1  1
  2  3  1  0
  2  4  1  0
  4  5  2  0
  4  6  1  0
  6  7  1  0
  7  8  2  0
  8  9  1  0
  9 10  1  0
 10 11  1  0
 10 12  1  0
 10 13  1  0
  9 14  2  0
 14 15  1  0
 15 16  1  0
 16 17  2  0
 16 18  1  0
 18 19  1  6
 18 20  1  0
 20 21  3  0
 15  7  1  0
M  END
$$$$

     RDKit          3D

 21 21  0  0  0  0  0  0  0  0999 V2000
   11.1742    8.0448   23.4878 C   0  0  0  0  0  0  0  0  0  0  0  0
    9.7810    8.5928   23.3208 C   0  0  2  0  0  0  0  0  0  0  0  0
    9.5467    8.3519   21.9239 C   0  0  0  0  0  0  0  0  0  0  0  0
    9.5201    8.1469   20.7870 N   0  0  0  0  0  0  0  0  0  0  0  0
    9.9267   10.0400   23.4719 C   0  0  0  0  0  0  0  0  0  0  0  0
   10.9040   10.6988   23.1650 O   0  0  0  0  0  0  0  0  0  0  0  0
    8.8427   10.7381   23.9858 N   0  0  0  0  0  0  0  0  0  0  0  0
    7.9022   10.1747   24.7943 N   0  0  0  0  0  0  0  0  0  0  0  0
    7.2312   11.2357   25.3028 C   0  0  0  0  0  0  0  0  0  0  0  0
    6.2034   11.1461   26.3962 C   0  0  0  0  0  0  0  0  0  0  0  0
    5.2101   12.0635   26.2443 F   0  0  0  0  0  0  0  0  0  0  0  0
    5.5962    9.9393   26.4906 F   0  0  0  0  0  0  0  0  0  0  0  0
    6.7603   11.3996   27.6133 F   0  0  0  0  0  0  0  0  0  0  0  0
    7.6669   12.4545   24.7187 C   0  0  0  0  0  0  0  0  0  0  0  0
    8.6775   12.1036   23.8654 C   0  0  0  0  0  0  0  0  0  0  0  0
    9.5232   12.8452   23.0553 N   0  0  0  0  0  0  0  0  0  0  0  0
   10.5119   13.6182   23.6495 C   0  0  0  0  0  0  0  0  0  0  0  0
   10.4293   14.0695   24.7948 O   0  0  0  0  0  0  0  0  0  0  0  0
   11.7203   13.7748   22.7415 C   0  0  1  0  0  0  0  0  0  0  0  0
   11.9417   15.2403   22.4600 C   0  0  0  0  0  0  0  0  0  0  0  0
   12.8711   13.3148   23.5136 N   0  0  0  0  0  0  0  0  0  0  0  0
  2  1  1  6
  2  3  1  0
  3  4  3  0
  2  5  1  0
  5  6  2  0
  5  7  1  0
  7  8  1  0
  8  9  2  0
  9 10  1  0
 10 11  1  0
 10 12  1  0
 10 13  1  0
  9 14  1  0
 14 15  2  0
 15 16  1  0
 16 17  1  0
 17 18  2  0
 17 19  1  0
 19 20  1  1
 19 21  1  0
 15  7  1  0
M  END
$$$$

     RDKit          3D

 21 21  0  0  0  0  0  0  0  0999 V2000
   12.4318   15.0488   22.7100 C   0  0  0  0  0  0  0  0  0  0  0  0
   11.5429   13.8892   22.3308 C   0  0  2  0  0  0  0  0  0  0  0  0
   10.6780   14.3597   21.2557 N   0  0  0  0  0  0  0  0  0  0  0  0
   10.6375   13.5223   23.5003 C   0  0  0  0  0  0  0  0  0  0  0  0
   10.5689   14.1495   24.5579 O   0  0  0  0  0  0  0  0  0  0  0  0
    9.9220   12.3580   23.2556 N   0  0  0  0  0  0  0  0  0  0  0  0
    8.8992   11.9311   24.0853 C   0  0  0  0  0  0  0  0  0  0  0  0
    8.0418   12.5990   24.9413 C   0  0  0  0  0  0  0  0  0  0  0  0
    7.2347   11.6026   25.5463 C   0  0  0  0  0  0  0  0  0  0  0  0
    6.2277   11.7293   26.6430 C   0  0  0  0  0  0  0  0  0  0  0  0
    5.2988   12.6841   26.3910 F   0  0  0  0  0  0  0  0  0  0  0  0
    5.5470   10.5793   26.8969 F   0  0  0  0  0  0  0  0  0  0  0  0
    6.8374   12.0725   27.8118 F   0  0  0  0  0  0  0  0  0  0  0  0
    7.5499   10.4038   25.0656 N   0  0  0  0  0  0  0  0  0  0  0  0
    8.5327   10.6096   24.1656 N   0  0  0  0  0  0  0  0  0  0  0  0
    8.9774    9.4956   23.4865 C   0  0  0  0  0  0  0  0  0  0  0  0
    8.3209    8.4808   23.5645 O   0  0  0  0  0  0  0  0  0  0  0  0
   10.2219    9.6670   22.7537 C   0  0  2  0  0  0  0  0  0  0  0  0
   10.0729    9.0031   21.4378 C   0  0  0  0  0  0  0  0  0  0  0  0
   11.1581    8.8397   23.4201 C   0  0  0  0  0  0  0  0  0  0  0  0
   11.9860    8.2021   23.8845 N   0  0  0  0  0  0  0  0  0  0  0  0
  2  1  1  1
  2  3  1  0
  2  4  1  0
  4  5  2  0
  4  6  1  0
  6  7  1  0
  7  8  2  0
  8  9  1  0
  9 10  1  0
 10 11  1  0
 10 12  1  0
 10 13  1  0
  9 14  2  0
 14 15  1  0
 15 16  1  0
 16 17  2  0
 16 18  1  0
 18 19  1  6
 18 20  1  0
 20 21  3  0
 15  7  1  0
M  END
$$$$

     RDKit          3D

 21 21  0  0  0  0  0  0  0  0999 V2000
   11.1742    8.0448   23.4878 C   0  0  0  0  0  0  0  0  0  0  0  0
    9.7810    8.5928   23.3208 C   0  0  2  0  0  0  0  0  0  0  0  0
    9.5467    8.3519   21.9239 C   0  0  0  0  0  0  0  0  0  0  0  0
    9.5201    8.1469   20.7870 N   0  0  0  0  0  0  0  0  0  0  0  0
    9.9267   10.0400   23.4719 C   0  0  0  0  0  0  0  0  0  0  0  0
   10.9040   10.6988   23.1650 O   0  0  0  0  0  0  0  0  0  0  0  0
    8.8427   10.7381   23.9858 N   0  0  0  0  0  0  0  0  0  0  0  0
    7.9022   10.1747   24.7943 N   0  0  0  0  0  0  0  0  0  0  0  0
    7.2312   11.2357   25.3028 C   0  0  0  0  0  0  0  0  0  0  0  0
    6.2034   11.1461   26.3962 C   0  0  0  0  0  0  0  0  0  0  0  0
    5.2101   12.0635   26.2443 F   0  0  0  0  0  0  0  0  0  0  0  0
    5.5962    9.9393   26.4906 F   0  0  0  0  0  0  0  0  0  0  0  0
    6.7603   11.3996   27.6133 F   0  0  0  0  0  0  0  0  0  0  0  0
    7.6669   12.4545   24.7187 C   0  0  0  0  0  0  0  0  0  0  0  0
    8.6775   12.1036   23.8654 C   0  0  0  0  0  0  0  0  0  0  0  0
    9.5232   12.8452   23.0553 N   0  0  0  0  0  0  0  0  0  0  0  0
   10.5119   13.6182   23.6495 C   0  0  0  0  0  0  0  0  0  0  0  0
   10.4293   14.0695   24.7948 O   0  0  0  0  0  0  0  0  0  0  0  0
   11.7203   13.7748   22.7415 C   0  0  1  0  0  0  0  0  0  0  0  0
   11.9417   15.2403   22.4600 C   0  0  0  0  0  0  0  0  0  0  0  0
   12.8711   13.3148   23.5136 N   0  0  0  0  0  0  0  0  0  0  0  0
  2  1  1  6
  2  3  1  0
  3  4  3  0
  2  5  1  0
  5  6  2  0
  5  7  1  0
  7  8  1  0
  8  9  2  0
  9 10  1  0
 10 11  1  0
 10 12  1  0
 10 13  1  0
  9 14  1  0
 14 15  2  0
 15 16  1  0
 16 17  1  0
 17 18  2  0
 17 19  1  0
 19 20  1  1
 19 21  1  0
 15  7  1  0
M  END
$$$$

     RDKit          3D

 21 21  0  0  0  0  0  0  0  0999 V2000
   12.4318   15.0488   22.7100 C   0  0  0  0  0  0  0  0  0  0  0  0
   11.5429   13.8892   22.3308 C   0  0  2  0  0  0  0  0  0  0  0  0
   10.6780   14.3597   21.2557 N   0  0  0  0  0  0  0  0  0  0  0  0
   10.6375   13.5223   23.5003 C   0  0  0  0  0  0  0  0  0  0  0  0
   10.5689   14.1495   24.5579 O   0  0  0  0  0  0  0  0  0  0  0  0
    9.9220   12.3580   23.2556 N   0  0  0  0  0  0  0  0  0  0  0  0
    8.8992   11.9311   24.0853 C   0  0  0  0  0  0  0  0  0  0  0  0
    8.0418   12.5990   24.9413 C   0  0  0  0  0  0  0  0  0  0  0  0
    7.2347   11.6026   25.5463 C   0  0  0  0  0  0  0  0  0  0  0  0
    6.2277   11.7293   26.6430 C   0  0  0  0  0  0  0  0  0  0  0  0
    5.2988   12.6841   26.3910 F   0  0  0  0  0  0  0  0  0  0  0  0
    5.5470   10.5793   26.8969 F   0  0  0  0  0  0  0  0  0  0  0  0
    6.8374   12.0725   27.8118 F   0  0  0  0  0  0  0  0  0  0  0  0
    7.5499   10.4038   25.0656 N   0  0  0  0  0  0  0  0  0  0  0  0
    8.5327   10.6096   24.1656 N   0  0  0  0  0  0  0  0  0  0  0  0
    8.9774    9.4956   23.4865 C   0  0  0  0  0  0  0  0  0  0  0  0
    8.3209    8.4808   23.5645 O   0  0  0  0  0  0  0  0  0  0  0  0
   10.2219    9.6670   22.7537 C   0  0  2  0  0  0  0  0  0  0  0  0
   10.0729    9.0031   21.4378 C   0  0  0  0  0  0  0  0  0  0  0  0
   11.1581    8.8397   23.4201 C   0  0  0  0  0  0  0  0  0  0  0  0
   11.9860    8.2021   23.8845 N   0  0  0  0  0  0  0  0  0  0  0  0
  2  1  1  1
  2  3  1  0
  2  4  1  0
  4  5  2  0
  4  6  1  0
  6  7  1  0
  7  8  2  0
  8  9  1  0
  9 10  1  0
 10 11  1  0
 10 12  1  0
 10 13  1  0
  9 14  2  0
 14 15  1  0
 15 16  1  0
 16 17  2  0
 16 18  1  0
 18 19  1  6
 18 20  1  0
 20 21  3  0
 15  7  1  0
M  END
$$$$

     RDKit          3D

 21 21  0  0  0  0  0  0  0  0999 V2000
   11.1742    8.0448   23.4878 C   0  0  0  0  0  0  0  0  0  0  0  0
    9.7810    8.5928   23.3208 C   0  0  2  0  0  0  0  0  0  0  0  0
    9.5467    8.3519   21.9239 C   0  0  0  0  0  0  0  0  0  0  0  0
    9.5201    8.1469   20.7870 N   0  0  0  0  0  0  0  0  0  0  0  0
    9.9267   10.0400   23.4719 C   0  0  0  0  0  0  0  0  0  0  0  0
   10.9040   10.6988   23.1650 O   0  0  0  0  0  0  0  0  0  0  0  0
    8.8427   10.7381   23.9858 N   0  0  0  0  0  0  0  0  0  0  0  0
    7.9022   10.1747   24.7943 N   0  0  0  0  0  0  0  0  0  0  0  0
    7.2312   11.2357   25.3028 C   0  0  0  0  0  0  0  0  0  0  0  0
    6.2034   11.1461   26.3962 C   0  0  0  0  0  0  0  0  0  0  0  0
    5.2101   12.0635   26.2443 F   0  0  0  0  0  0  0  0  0  0  0  0
    5.5962    9.9393   26.4906 F   0  0  0  0  0  0  0  0  0  0  0  0
    6.7603   11.3996   27.6133 F   0  0  0  0  0  0  0  0  0  0  0  0
    7.6669   12.4545   24.7187 C   0  0  0  0  0  0  0  0  0  0  0  0
    8.6775   12.1036   23.8654 C   0  0  0  0  0  0  0  0  0  0  0  0
    9.5232   12.8452   23.0553 N   0  0  0  0  0  0  0  0  0  0  0  0
   10.5119   13.6182   23.6495 C   0  0  0  0  0  0  0  0  0  0  0  0
   10.4293   14.0695   24.7948 O   0  0  0  0  0  0  0  0  0  0  0  0
   11.7203   13.7748   22.7415 C   0  0  1  0  0  0  0  0  0  0  0  0
   11.9417   15.2403   22.4600 C   0  0  0  0  0  0  0  0  0  0  0  0
   12.8711   13.3148   23.5136 N   0  0  0  0  0  0  0  0  0  0  0  0
  2  1  1  6
  2  3  1  0
  3  4  3  0
  2  5  1  0
  5  6  2  0
  5  7  1  0
  7  8  1  0
  8  9  2  0
  9 10  1  0
 10 11  1  0
 10 12  1  0
 10 13  1  0
  9 14  1  0
 14 15  2  0
 15 16  1  0
 16 17  1  0
 17 18  2  0
 17 19  1  0
 19 20  1  1
 19 21  1  0
 15  7  1  0
M  END
$$$$

     RDKit          3D

 21 21  0  0  0  0  0  0  0  0999 V2000
   12.4318   15.0488   22.7100 C   0  0  0  0  0  0  0  0  0  0  0  0
   11.5429   13.8892   22.3308 C   0  0  2  0  0  0  0  0  0  0  0  0
   10.6780   14.3597   21.2557 N   0  0  0  0  0  0  0  0  0  0  0  0
   10.6375   13.5223   23.5003 C   0  0  0  0  0  0  0  0  0  0  0  0
   10.5689   14.1495   24.5579 O   0  0  0  0  0  0  0  0  0  0  0  0
    9.9220   12.3580   23.2556 N   0  0  0  0  0  0  0  0  0  0  0  0
    8.8992   11.9311   24.0853 C   0  0  0  0  0  0  0  0  0  0  0  0
    8.0418   12.5990   24.9413 C   0  0  0  0  0  0  0  0  0  0  0  0
    7.2347   11.6026   25.5463 C   0  0  0  0  0  0  0  0  0  0  0  0
    6.2277   11.7293   26.6430 C   0  0  0  0  0  0  0  0  0  0  0  0
    5.2988   12.6841   26.3910 F   0  0  0  0  0  0  0  0  0  0  0  0
    5.5470   10.5793   26.8969 F   0  0  0  0  0  0  0  0  0  0  0  0
    6.8374   12.0725   27.8118 F   0  0  0  0  0  0  0  0  0  0  0  0
    7.5499   10.4038   25.0656 N   0  0  0  0  0  0  0  0  0  0  0  0
    8.5327   10.6096   24.1656 N   0  0  0  0  0  0  0  0  0  0  0  0
    8.9774    9.4956   23.4865 C   0  0  0  0  0  0  0  0  0  0  0  0
    8.3209    8.4808   23.5645 O   0  0  0  0  0  0  0  0  0  0  0  0
   10.2219    9.6670   22.7537 C   0  0  2  0  0  0  0  0  0  0  0  0
   10.0729    9.0031   21.4378 C   0  0  0  0  0  0  0  0  0  0  0  0
   11.1581    8.8397   23.4201 C   0  0  0  0  0  0  0  0  0  0  0  0
   11.9860    8.2021   23.8845 N   0  0  0  0  0  0  0  0  0  0  0  0
  2  1  1  1
  2  3  1  0
  2  4  1  0
  4  5  2  0
  4  6  1  0
  6  7  1  0
  7  8  2  0
  8  9  1  0
  9 10  1  0
 10 11  1  0
 10 12  1  0
 10 13  1  0
  9 14  2  0
 14 15  1  0
 15 16  1  0
 16 17  2  0
 16 18  1  0
 18 19  1  6
 18 20  1  0
 20 21  3  0
 15  7  1  0
M  END
$$$$

     RDKit          3D

 21 21  0  0  0  0  0  0  0  0999 V2000
   11.1742    8.0448   23.4878 C   0  0  0  0  0  0  0  0  0  0  0  0
    9.7810    8.5928   23.3208 C   0  0  2  0  0  0  0  0  0  0  0  0
    9.5467    8.3519   21.9239 C   0  0  0  0  0  0  0  0  0  0  0  0
    9.5201    8.1469   20.7870 N   0  0  0  0  0  0  0  0  0  0  0  0
    9.9267   10.0400   23.4719 C   0  0  0  0  0  0  0  0  0  0  0  0
   10.9040   10.6988   23.1650 O   0  0  0  0  0  0  0  0  0  0  0  0
    8.8427   10.7381   23.9858 N   0  0  0  0  0  0  0  0  0  0  0  0
    7.9022   10.1747   24.7943 N   0  0  0  0  0  0  0  0  0  0  0  0
    7.2312   11.2357   25.3028 C   0  0  0  0  0  0  0  0  0  0  0  0
    6.2034   11.1461   26.3962 C   0  0  0  0  0  0  0  0  0  0  0  0
    5.2101   12.0635   26.2443 F   0  0  0  0  0  0  0  0  0  0  0  0
    5.5962    9.9393   26.4906 F   0  0  0  0  0  0  0  0  0  0  0  0
    6.7603   11.3996   27.6133 F   0  0  0  0  0  0  0  0  0  0  0  0
    7.6669   12.4545   24.7187 C   0  0  0  0  0  0  0  0  0  0  0  0
    8.6775   12.1036   23.8654 C   0  0  0  0  0  0  0  0  0  0  0  0
    9.5232   12.8452   23.0553 N   0  0  0  0  0  0  0  0  0  0  0  0
   10.5119   13.6182   23.6495 C   0  0  0  0  0  0  0  0  0  0  0  0
   10.4293   14.0695   24.7948 O   0  0  0  0  0  0  0  0  0  0  0  0
   11.7203   13.7748   22.7415 C   0  0  1  0  0  0  0  0  0  0  0  0
   11.9417   15.2403   22.4600 C   0  0  0  0  0  0  0  0  0  0  0  0
   12.8711   13.3148   23.5136 N   0  0  0  0  0  0  0  0  0  0  0  0
  2  1  1  6
  2  3  1  0
  3  4  3  0
  2  5  1  0
  5  6  2  0
  5  7  1  0
  7  8  1  0
  8  9  2  0
  9 10  1  0
 10 11  1  0
 10 12  1  0
 10 13  1  0
  9 14  1  0
 14 15  2  0
 15 16  1  0
 16 17  1  0
 17 18  2  0
 17 19  1  0
 19 20  1  1
 19 21  1  0
 15  7  1  0
M  END
$$$$

     RDKit          3D

 23 23  0  0  0  0  0  0  0  0999 V2000
   10.2937   17.1072   17.6299 C   0  0  0  0  0  0  0  0  0  0  0  0
   10.3779   15.8839   18.4635 C   0  0  0  0  0  0  0  0  0  0  0  0
   11.6498   15.0564   18.3066 C   0  0  0  0  0  0  0  0  0  0  0  0
   11.7304   14.0514   19.4279 C   0  0  2  0  0  0  0  0  0  0  0  0
   10.3953   13.9535   20.0114 C   0  0  0  0  0  0  0  0  0  0  0  0
    9.3693   13.9603   20.5506 N   0  0  0  0  0  0  0  0  0  0  0  0
   12.5468   14.4494   20.6251 C   0  0  0  0  0  0  0  0  0  0  0  0
   13.0393   15.5548   20.8138 O   0  0  0  0  0  0  0  0  0  0  0  0
   12.3853   13.5265   21.6527 N   0  0  0  0  0  0  0  0  0  0  0  0
   11.8473   14.0473   22.8504 C   0  0  2  0  0  0  0  0  0  0  0  0
   12.7372   14.9992   23.5795 C   0  0  0  0  0  0  0  0  0  0  0  0
   11.0476   13.1838   23.7777 C   0  0  0  0  0  0  0  0  0  0  0  0
   10.9471   13.4873   24.9736 O   0  0  0  0  0  0  0  0  0  0  0  0
   10.3097   12.1700   23.1945 N   0  0  0  0  0  0  0  0  0  0  0  0
    9.0291   12.0203   23.7008 C   0  0  0  0  0  0  0  0  0  0  0  0
    8.4866   10.8854   24.3599 C   0  0  0  0  0  0  0  0  0  0  0  0
    7.3415   11.3789   24.9625 C   0  0  0  0  0  0  0  0  0  0  0  0
    6.3853   10.9083   25.9527 C   0  0  0  0  0  0  0  0  0  0  0  0
    6.9925   10.7429   27.1419 F   0  0  0  0  0  0  0  0  0  0  0  0
    5.3742   11.7884   26.1713 F   0  0  0  0  0  0  0  0  0  0  0  0
    5.8190    9.7300   25.6404 F   0  0  0  0  0  0  0  0  0  0  0  0
    7.2051   12.6543   24.5386 N   0  0  0  0  0  0  0  0  0  0  0  0
    8.1923   13.0627   23.7599 N   0  0  0  0  0  0  0  0  0  0  0  0
  1  2  1  0
  2  3  1  0
  4  3  1  6
  4  5  1  0
  5  6  3  0
  4  7  1  0
  7  8  2  0
  7  9  1  0
  9 10  1  0
 10 11  1  1
 10 12  1  0
 12 13  2  0
 12 14  1  0
 14 15  1  0
 15 16  1  0
 16 17  2  0
 17 18  1  0
 18 19  1  0
 18 20  1  0
 18 21  1  0
 17 22  1  0
 22 23  1  0
 23 15  2  0
M  END
$$$$

     RDKit          3D

 23 23  0  0  0  0  0  0  0  0999 V2000
   10.2937   17.1072   17.6299 C   0  0  0  0  0  0  0  0  0  0  0  0
   10.3779   15.8839   18.4635 C   0  0  0  0  0  0  0  0  0  0  0  0
   11.6498   15.0564   18.3066 C   0  0  0  0  0  0  0  0  0  0  0  0
   11.7304   14.0514   19.4279 C   0  0  2  0  0  0  0  0  0  0  0  0
   10.3953   13.9535   20.0114 C   0  0  0  0  0  0  0  0  0  0  0  0
    9.3693   13.9603   20.5506 N   0  0  0  0  0  0  0  0  0  0  0  0
   12.5468   14.4494   20.6251 C   0  0  0  0  0  0  0  0  0  0  0  0
   13.0393   15.5548   20.8138 O   0  0  0  0  0  0  0  0  0  0  0  0
   12.3853   13.5265   21.6527 N   0  0  0  0  0  0  0  0  0  0  0  0
   11.8473   14.0473   22.8504 C   0  0  2  0  0  0  0  0  0  0  0  0
   12.7372   14.9992   23.5795 C   0  0  0  0  0  0  0  0  0  0  0  0
   11.0476   13.1838   23.7777 C   0  0  0  0  0  0  0  0  0  0  0  0
   10.9471   13.4873   24.9736 O   0  0  0  0  0  0  0  0  0  0  0  0
   10.3097   12.1700   23.1945 N   0  0  0  0  0  0  0  0  0  0  0  0
    9.0291   12.0203   23.7008 C   0  0  0  0  0  0  0  0  0  0  0  0
    8.4866   10.8854   24.3599 C   0  0  0  0  0  0  0  0  0  0  0  0
    7.3415   11.3789   24.9625 C   0  0  0  0  0  0  0  0  0  0  0  0
    6.3853   10.9083   25.9527 C   0  0  0  0  0  0  0  0  0  0  0  0
    6.9925   10.7429   27.1419 F   0  0  0  0  0  0  0  0  0  0  0  0
    5.3742   11.7884   26.1713 F   0  0  0  0  0  0  0  0  0  0  0  0
    5.8190    9.7300   25.6404 F   0  0  0  0  0  0  0  0  0  0  0  0
    7.2051   12.6543   24.5386 N   0  0  0  0  0  0  0  0  0  0  0  0
    8.1923   13.0627   23.7599 N   0  0  0  0  0  0  0  0  0  0  0  0
  1  2  1  0
  2  3  1  0
  4  3  1  6
  4  5  1  0
  5  6  3  0
  4  7  1  0
  7  8  2  0
  7  9  1  0
  9 10  1  0
 10 11  1  1
 10 12  1  0
 12 13  2  0
 12 14  1  0
 14 15  1  0
 15 16  1  0
 16 17  2  0
 17 18  1  0
 18 19  1  0
 18 20  1  0
 18 21  1  0
 17 22  1  0
 22 23  1  0
 23 15  2  0
M  END
$$$$

     RDKit          3D

 23 23  0  0  0  0  0  0  0  0999 V2000
   10.2937   17.1072   17.6299 C   0  0  0  0  0  0  0  0  0  0  0  0
   10.3779   15.8839   18.4635 C   0  0  0  0  0  0  0  0  0  0  0  0
   11.6498   15.0564   18.3066 C   0  0  0  0  0  0  0  0  0  0  0  0
   11.7304   14.0514   19.4279 C   0  0  2  0  0  0  0  0  0  0  0  0
   10.3953   13.9535   20.0114 C   0  0  0  0  0  0  0  0  0  0  0  0
    9.3693   13.9603   20.5506 N   0  0  0  0  0  0  0  0  0  0  0  0
   12.5468   14.4494   20.6251 C   0  0  0  0  0  0  0  0  0  0  0  0
   13.0393   15.5548   20.8138 O   0  0  0  0  0  0  0  0  0  0  0  0
   12.3853   13.5265   21.6527 N   0  0  0  0  0  0  0  0  0  0  0  0
   11.8473   14.0473   22.8504 C   0  0  2  0  0  0  0  0  0  0  0  0
   12.7372   14.9992   23.5795 C   0  0  0  0  0  0  0  0  0  0  0  0
   11.0476   13.1838   23.7777 C   0  0  0  0  0  0  0  0  0  0  0  0
   10.9471   13.4873   24.9736 O   0  0  0  0  0  0  0  0  0  0  0  0
   10.3097   12.1700   23.1945 N   0  0  0  0  0  0  0  0  0  0  0  0
    9.0291   12.0203   23.7008 C   0  0  0  0  0  0  0  0  0  0  0  0
    8.4866   10.8854   24.3599 C   0  0  0  0  0  0  0  0  0  0  0  0
    7.3415   11.3789   24.9625 C   0  0  0  0  0  0  0  0  0  0  0  0
    6.3853   10.9083   25.9527 C   0  0  0  0  0  0  0  0  0  0  0  0
    6.9925   10.7429   27.1419 F   0  0  0  0  0  0  0  0  0  0  0  0
    5.3742   11.7884   26.1713 F   0  0  0  0  0  0  0  0  0  0  0  0
    5.8190    9.7300   25.6404 F   0  0  0  0  0  0  0  0  0  0  0  0
    7.2051   12.6543   24.5386 N   0  0  0  0  0  0  0  0  0  0  0  0
    8.1923   13.0627   23.7599 N   0  0  0  0  0  0  0  0  0  0  0  0
  1  2  1  0
  2  3  1  0
  4  3  1  6
  4  5  1  0
  5  6  3  0
  4  7  1  0
  7  8  2  0
  7  9  1  0
  9 10  1  0
 10 11  1  1
 10 12  1  0
 12 13  2  0
 12 14  1  0
 14 15  1  0
 15 16  1  0
 16 17  2  0
 17 18  1  0
 18 19  1  0
 18 20  1  0
 18 21  1  0
 17 22  1  0
 22 23  1  0
 23 15  2  0
M  END
$$$$

     RDKit          3D

 23 23  0  0  0  0  0  0  0  0999 V2000
   10.2937   17.1072   17.6299 C   0  0  0  0  0  0  0  0  0  0  0  0
   10.3779   15.8839   18.4635 C   0  0  0  0  0  0  0  0  0  0  0  0
   11.6498   15.0564   18.3066 C   0  0  0  0  0  0  0  0  0  0  0  0
   11.7304   14.0514   19.4279 C   0  0  2  0  0  0  0  0  0  0  0  0
   10.3953   13.9535   20.0114 C   0  0  0  0  0  0  0  0  0  0  0  0
    9.3693   13.9603   20.5506 N   0  0  0  0  0  0  0  0  0  0  0  0
   12.5468   14.4494   20.6251 C   0  0  0  0  0  0  0  0  0  0  0  0
   13.0393   15.5548   20.8138 O   0  0  0  0  0  0  0  0  0  0  0  0
   12.3853   13.5265   21.6527 N   0  0  0  0  0  0  0  0  0  0  0  0
   11.8473   14.0473   22.8504 C   0  0  2  0  0  0  0  0  0  0  0  0
   12.7372   14.9992   23.5795 C   0  0  0  0  0  0  0  0  0  0  0  0
   11.0476   13.1838   23.7777 C   0  0  0  0  0  0  0  0  0  0  0  0
   10.9471   13.4873   24.9736 O   0  0  0  0  0  0  0  0  0  0  0  0
   10.3097   12.1700   23.1945 N   0  0  0  0  0  0  0  0  0  0  0  0
    9.0291   12.0203   23.7008 C   0  0  0  0  0  0  0  0  0  0  0  0
    8.4866   10.8854   24.3599 C   0  0  0  0  0  0  0  0  0  0  0  0
    7.3415   11.3789   24.9625 C   0  0  0  0  0  0  0  0  0  0  0  0
    6.3853   10.9083   25.9527 C   0  0  0  0  0  0  0  0  0  0  0  0
    6.9925   10.7429   27.1419 F   0  0  0  0  0  0  0  0  0  0  0  0
    5.3742   11.7884   26.1713 F   0  0  0  0  0  0  0  0  0  0  0  0
    5.8190    9.7300   25.6404 F   0  0  0  0  0  0  0  0  0  0  0  0
    7.2051   12.6543   24.5386 N   0  0  0  0  0  0  0  0  0  0  0  0
    8.1923   13.0627   23.7599 N   0  0  0  0  0  0  0  0  0  0  0  0
  1  2  1  0
  2  3  1  0
  4  3  1  6
  4  5  1  0
  5  6  3  0
  4  7  1  0
  7  8  2  0
  7  9  1  0
  9 10  1  0
 10 11  1  1
 10 12  1  0
 12 13  2  0
 12 14  1  0
 14 15  1  0
 15 16  1  0
 16 17  2  0
 17 18  1  0
 18 19  1  0
 18 20  1  0
 18 21  1  0
 17 22  1  0
 22 23  1  0
 23 15  2  0
M  END
$$$$

     RDKit          3D

 26 26  0  0  0  0  0  0  0  0999 V2000
    5.2877   12.1994   26.1872 C   0  0  0  0  0  0  0  0  0  0  0  0
    6.1670   10.9745   26.3204 C   0  0  0  0  0  0  0  0  0  0  0  0
    6.5265   10.8571   27.7741 C   0  0  0  0  0  0  0  0  0  0  0  0
    5.3199    9.7670   26.0546 C   0  0  0  0  0  0  0  0  0  0  0  0
    7.3541   11.0461   25.4140 C   0  0  0  0  0  0  0  0  0  0  0  0
    7.9809   12.2129   24.9298 C   0  0  0  0  0  0  0  0  0  0  0  0
    9.0027   11.7800   24.1207 C   0  0  0  0  0  0  0  0  0  0  0  0
    9.9815   12.4732   23.4484 N   0  0  0  0  0  0  0  0  0  0  0  0
   10.3152   13.7654   23.7938 C   0  0  0  0  0  0  0  0  0  0  0  0
    9.8735   14.3946   24.7478 O   0  0  0  0  0  0  0  0  0  0  0  0
   11.2904   14.3171   22.8343 C   0  0  1  0  0  0  0  0  0  0  0  0
   10.7437   14.6892   21.4785 C   0  0  0  0  0  0  0  0  0  0  0  0
   11.8637   14.0550   20.2531 P   0  0  0  0  0  0  0  0  0  0  0  0
   12.5299   12.7407   21.2077 C   0  0  0  0  0  0  0  0  0  0  0  0
   13.2614   15.0696   20.2844 C   0  0  0  0  0  0  0  0  0  0  0  0
   11.2639   13.7864   18.9090 O   0  0  0  0  0  0  0  0  0  0  0  0
   12.2807   15.2493   23.4150 C   0  0  0  0  0  0  0  0  0  0  0  0
   13.3916   15.2723   22.6605 F   0  0  0  0  0  0  0  0  0  0  0  0
   11.7990   16.5031   23.4464 F   0  0  0  0  0  0  0  0  0  0  0  0
   12.6566   14.8558   24.6434 F   0  0  0  0  0  0  0  0  0  0  0  0
    8.9148   10.4103   24.0863 N   0  0  0  0  0  0  0  0  0  0  0  0
    9.6287    9.5085   23.2057 C   0  0  0  0  0  0  0  0  0  0  0  0
   10.1862   10.1986   22.0213 C   0  0  0  0  0  0  0  0  0  0  0  0
    8.7339    8.4588   22.6646 C   0  0  0  0  0  0  0  0  0  0  0  0
   10.8448    8.8384   23.7344 C   0  0  0  0  0  0  0  0  0  0  0  0
    7.9542    9.9469   24.9311 N   0  0  0  0  0  0  0  0  0  0  0  0
  1  2  1  0
  2  3  1  0
  2  4  1  0
  2  5  1  0
  5  6  1  0
  6  7  2  0
  7  8  1  0
  8  9  1  0
  9 10  2  0
  9 11  1  0
 11 12  1  6
 12 13  1  0
 13 14  1  0
 13 15  1  0
 13 16  2  0
 11 17  1  0
 17 18  1  0
 17 19  1  0
 17 20  1  0
  7 21  1  0
 21 22  1  0
 22 23  1  0
 22 24  1  0
 22 25  1  0
 21 26  1  0
 26  5  2  0
M  END
$$$$

     RDKit          3D

 21 21  0  0  0  0  0  0  0  0999 V2000
   10.8615    8.7620   23.3185 C   0  0  0  0  0  0  0  0  0  0  0  0
    9.5029    9.2358   22.8938 C   0  0  0  0  0  0  0  0  0  0  0  0
    8.9704   10.2650   23.7632 N   0  0  0  0  0  0  0  0  0  0  0  0
    7.9761    9.9458   24.6309 N   0  0  0  0  0  0  0  0  0  0  0  0
    7.5734   11.1259   25.1287 C   0  0  0  0  0  0  0  0  0  0  0  0
    6.5020   11.2736   26.1645 C   0  0  0  0  0  0  0  0  0  0  0  0
    5.4121   12.2228   25.7275 C   0  0  0  0  0  0  0  0  0  0  0  0
    5.8435    9.9809   26.5709 C   0  0  0  0  0  0  0  0  0  0  0  0
    7.0520   11.9091   27.4197 C   0  0  0  0  0  0  0  0  0  0  0  0
    8.3229   12.1833   24.5726 C   0  0  0  0  0  0  0  0  0  0  0  0
    9.2415   11.6054   23.7304 C   0  0  0  0  0  0  0  0  0  0  0  0
   10.2505   12.1839   22.9878 N   0  0  0  0  0  0  0  0  0  0  0  0
   10.7274   13.4555   23.3262 C   0  0  0  0  0  0  0  0  0  0  0  0
   10.4469   14.0290   24.3811 O   0  0  0  0  0  0  0  0  0  0  0  0
   11.5718   14.0916   22.2439 C   0  0  1  0  0  0  0  0  0  0  0  0
   12.5115   13.0949   21.6699 C   0  0  0  0  0  0  0  0  0  0  0  0
   10.7179   14.5399   21.2062 O   0  0  0  0  0  0  0  0  0  0  0  0
   12.4289   15.1878   22.8153 C   0  0  0  0  0  0  0  0  0  0  0  0
   13.1978   14.6963   23.8177 F   0  0  0  0  0  0  0  0  0  0  0  0
   13.2583   15.6931   21.8757 F   0  0  0  0  0  0  0  0  0  0  0  0
   11.7265   16.2311   23.2949 F   0  0  0  0  0  0  0  0  0  0  0  0
  1  2  1  0
  2  3  1  0
  3  4  1  0
  4  5  2  0
  5  6  1  0
  6  7  1  0
  6  8  1  0
  6  9  1  0
  5 10  1  0
 10 11  2  0
 11 12  1  0
 12 13  1  0
 13 14  2  0
 13 15  1  0
 15 16  1  6
 15 17  1  0
 15 18  1  0
 18 19  1  0
 18 20  1  0
 18 21  1  0
 11  3  1  0
M  END
$$$$
