A71EV2A-x2846_A_301_v1
     RDKit          3D

 20 22  0  0  0  0  0  0  0  0999 V2000
    9.9090   14.1600   24.9960 O   0  0  0  0  0  0  0  0  0  0  0  0
   10.0300   13.3400   24.0850 C   0  0  0  0  0  0  0  0  0  0  0  0
    9.3220   12.0130   24.1460 C   0  0  0  0  0  0  0  0  0  0  0  0
    9.7380   10.9750   23.4170 N   0  0  0  0  0  0  0  0  0  0  0  0
    8.2190   11.6420   24.9830 C   0  0  0  0  0  0  0  0  0  0  0  0
    8.0190   10.2810   24.7200 C   0  0  0  0  0  0  0  0  0  0  0  0
    7.0630    9.5410   25.4000 C   0  0  0  0  0  0  0  0  0  0  0  0
    6.2900   10.1900   26.3540 C   0  0  0  0  0  0  0  0  0  0  0  0
    6.4700   11.5410   26.6160 C   0  0  0  0  0  0  0  0  0  0  0  0
    7.4250   12.2760   25.9340 C   0  0  0  0  0  0  0  0  0  0  0  0
    8.9310    9.9260   23.7710 N   0  0  0  0  0  0  0  0  0  0  0  0
    9.1060    8.6330   23.1370 C   0  0  0  0  0  0  0  0  0  0  0  0
   10.7860   13.5430   23.0070 N   0  0  0  0  0  0  0  0  0  0  0  0
   11.7250   14.6500   22.9210 C   0  0  0  0  0  0  0  0  0  0  0  0
   12.0200   15.0370   21.4880 C   0  0  0  0  0  0  0  0  0  0  0  0
   10.8700   15.7210   20.8210 C   0  0  0  0  0  0  0  0  0  0  0  0
   10.1580   16.7280   21.4470 N   0  0  0  0  0  0  0  0  0  0  0  0
    9.2740   17.0670   20.5840 C   0  0  0  0  0  0  0  0  0  0  0  0
    9.3190   16.3960   19.4130 O   0  0  0  0  0  0  0  0  0  0  0  0
   10.3610   15.5340   19.5960 C   0  0  0  0  0  0  0  0  0  0  0  0
 12 11  1  0
 11  4  1  0
  4  3  2  0
  3  2  1  0
  2  1  2  0
 13  2  1  0
 14 13  1  0
 15 14  1  0
 16 15  1  0
 16 20  2  0
 20 19  1  0
 19 18  1  0
 18 17  2  0
 17 16  1  0
  5  3  1  0
  5 10  2  0
 10  9  1  0
  9  8  2  0
  8  7  1  0
  7  6  2  0
  6  5  1  0
 11  6  1  0
M  END
>  <id>  (1) 
132

>  <inchikey>  (1) 
ONGQCMNCDUWDOR-UHFFFAOYSA-N

>  <alias>  (1) 
A2846a

>  <name>  (1) 
A2846a

>  <smiles>  (1) 
Cn1nc(C(=O)NCCc2cocn2)c2ccccc21

>  <path>  (1) 
/opt/xchem-fragalysis-2/maxwin/2A_HIPPO/aligned_files/A2846a/A2846a.pdb

>  <distance_score>  (1) 
None

>  <energy_score>  (1) 
None

>  <compound>  (1) 
ONGQCMNCDUWDOR-UHFFFAOYSA-N

>  <compound_id>  (1) 
104

>  <target>  (1) 
A71EV2A

$$$$
