A71EV2A-x3054_A_201_v1
     RDKit          3D

 19 20  0  0  0  0  0  0  0  0999 V2000
    9.7760   17.0650   19.5510 O   0  0  0  0  0  0  0  0  0  0  0  0
   10.1000   15.8980   19.7950 C   0  0  0  0  0  0  0  0  0  0  0  0
   10.5100   15.0560   18.8610 N   0  0  0  0  0  0  0  0  0  0  0  0
   10.0690   15.3580   21.2130 C   0  0  1  0  0  0  0  0  0  0  0  0
   11.2870   15.8440   22.0160 C   0  0  0  0  0  0  0  0  0  0  0  0
   11.2130   15.4470   23.4950 C   0  0  0  0  0  0  0  0  0  0  0  0
    9.8820   15.8590   24.0990 C   0  0  0  0  0  0  0  0  0  0  0  0
    8.8100   15.8610   21.9210 C   0  0  0  0  0  0  0  0  0  0  0  0
    8.7740   15.3320   23.2870 N   0  0  0  0  0  0  0  0  0  0  0  0
    8.2820   14.0690   23.4590 C   0  0  0  0  0  0  0  0  0  0  0  0
    7.6100   13.5080   22.6010 O   0  0  0  0  0  0  0  0  0  0  0  0
    8.4860   13.5030   24.6740 N   0  0  0  0  0  0  0  0  0  0  0  0
    8.1270   12.1670   24.9390 C   0  0  0  0  0  0  0  0  0  0  0  0
    7.0990   11.7900   25.7890 C   0  0  0  0  0  0  0  0  0  0  0  0
    6.7400   10.4570   25.8680 C   0  0  0  0  0  0  0  0  0  0  0  0
    7.4120    9.5090   25.1100 C   0  0  0  0  0  0  0  0  0  0  0  0
    8.8160   11.2060   24.2060 C   0  0  0  0  0  0  0  0  0  0  0  0
    8.4660    9.8670   24.2800 C   0  0  0  0  0  0  0  0  0  0  0  0
    9.1910    8.8330   23.4520 C   0  0  0  0  0  0  0  0  0  0  0  0
 19 18  1  0
 18 16  2  0
 16 15  1  0
 15 14  2  0
 14 13  1  0
 13 12  1  0
 12 10  1  0
 11 10  2  0
 10  9  1  0
  9  7  1  0
  7  6  1  0
  6  5  1  0
  5  4  1  0
  4  2  1  6
  3  2  1  0
  2  1  2  0
  8  4  1  0
  9  8  1  0
 17 13  2  0
 18 17  1  0
M  END
>  <id>  (1) 
134

>  <inchikey>  (1) 
PUSSAGYROFRULS-NSHDSACASA-N

>  <alias>  (1) 
A3054a

>  <name>  (1) 
A3054a

>  <smiles>  (1) 
Cc1cccc(NC(=O)N2CCC[C@H](C(N)=O)C2)c1

>  <path>  (1) 
/opt/xchem-fragalysis-2/maxwin/2A_HIPPO/aligned_files/A3054a/A3054a.pdb

>  <distance_score>  (1) 
None

>  <energy_score>  (1) 
None

>  <compound>  (1) 
PUSSAGYROFRULS-UHFFFAOYSA-N

>  <compound_id>  (1) 
106

>  <target>  (1) 
A71EV2A

$$$$
