A71EV2A-x3435_A_201_v1
     RDKit          3D

 16 17  0  0  0  0  0  0  0  0999 V2000
    9.9370   13.7520   25.2240 O   0  0  0  0  0  0  0  0  0  0  0  0
    9.8180   13.0270   24.2370 C   0  0  0  0  0  0  0  0  0  0  0  0
    8.9280   11.8350   24.2980 C   0  0  0  0  0  0  0  0  0  0  0  0
    7.8830   11.8720   25.2200 C   0  0  0  0  0  0  0  0  0  0  0  0
    7.1580   10.7290   25.5060 C   0  0  0  0  0  0  0  0  0  0  0  0
    7.4410    9.5440   24.8540 C   0  0  0  0  0  0  0  0  0  0  0  0
    8.4820    9.4890   23.9340 C   0  0  0  0  0  0  0  0  0  0  0  0
    9.2230   10.6250   23.6560 C   0  0  0  0  0  0  0  0  0  0  0  0
   10.5110   13.2230   23.1050 N   0  0  0  0  0  0  0  0  0  0  0  0
   11.5470   14.2510   23.0410 C   0  0  0  0  0  0  0  0  0  0  0  0
   11.8550   14.6930   21.6260 C   0  0  0  0  0  0  0  0  0  0  0  0
   10.7200   15.4040   20.9590 C   0  0  0  0  0  0  0  0  0  0  0  0
   10.0130   16.4190   21.5990 N   0  0  0  0  0  0  0  0  0  0  0  0
    9.1560   16.8000   20.7210 C   0  0  0  0  0  0  0  0  0  0  0  0
    9.2090   16.1500   19.5400 O   0  0  0  0  0  0  0  0  0  0  0  0
   10.2250   15.2500   19.7230 C   0  0  0  0  0  0  0  0  0  0  0  0
  2  1  2  0
  3  2  1  0
  4  3  2  0
  5  4  1  0
  6  5  2  0
  7  6  1  0
  8  7  2  0
  8  3  1  0
  9  2  1  0
 10  9  1  0
 11 10  1  0
 12 11  1  0
 13 12  1  0
 14 13  2  0
 15 14  1  0
 16 15  1  0
 16 12  2  0
M  END
>  <id>  (1) 
207354

>  <inchikey>  (1) 
INXUYTDTOJRNGX-UHFFFAOYSA-N

>  <alias>  (1) 
A3435a

>  <name>  (1) 
A3435a

>  <smiles>  (1) 
O=C(NCCc1cocn1)c1ccccc1

>  <path>  (1) 
/opt/xchem-fragalysis-2/maxwin/2A_HIPPO/A71EV2A_P3only_20241209/aligned_files/A3435a/A3435a.pdb

>  <distance_score>  (1) 
None

>  <energy_score>  (1) 
None

>  <compound>  (1) 
INXUYTDTOJRNGX-UHFFFAOYSA-N

>  <compound_id>  (1) 
122399

>  <target>  (1) 
A71EV2A

$$$$
