A71EV2A-x3450_A_201_v1
     RDKit          3D

 19 20  0  0  0  0  0  0  0  0999 V2000
    9.8860   16.9780   19.5660 O   0  0  0  0  0  0  0  0  0  0  0  0
   10.2260   15.8070   19.7740 C   0  0  0  0  0  0  0  0  0  0  0  0
   10.5350   14.9640   18.8070 N   0  0  0  0  0  0  0  0  0  0  0  0
   10.2700   15.2390   21.1820 C   0  0  1  0  0  0  0  0  0  0  0  0
   11.2800   15.9840   22.0690 C   0  0  0  0  0  0  0  0  0  0  0  0
   11.2890   15.4290   23.4990 C   0  0  0  0  0  0  0  0  0  0  0  0
    9.8860   15.3950   24.0940 C   0  0  0  0  0  0  0  0  0  0  0  0
    8.8980   15.3890   21.8320 C   0  0  0  0  0  0  0  0  0  0  0  0
    8.9250   14.7790   23.1640 N   0  0  0  0  0  0  0  0  0  0  0  0
    8.1030   13.7430   23.4420 C   0  0  0  0  0  0  0  0  0  0  0  0
    7.2340   13.3740   22.6660 O   0  0  0  0  0  0  0  0  0  0  0  0
    8.3140   13.0530   24.7730 C   0  0  0  0  0  0  0  0  0  0  0  0
    8.4710   11.5820   24.4860 C   0  0  0  0  0  0  0  0  0  0  0  0
    7.6950   10.6160   25.0130 C   0  0  0  0  0  0  0  0  0  0  0  0
    6.6550   10.7900   25.9800 C   0  0  0  0  0  0  0  0  0  0  0  0
    5.8310   10.9750   26.7530 N   0  0  0  0  0  0  0  0  0  0  0  0
    9.4350   11.0340   23.5900 C   0  0  0  0  0  0  0  0  0  0  0  0
    9.3350    9.6970   23.4750 C   0  0  0  0  0  0  0  0  0  0  0  0
    8.0900    9.0740   24.4310 S   0  0  0  0  0  0  0  0  0  0  0  0
  2  1  2  0
  3  2  1  0
  4  2  1  6
  5  4  1  0
  6  5  1  0
  7  6  1  0
  8  4  1  0
  9  8  1  0
  9  7  1  0
 10  9  1  0
 11 10  2  0
 12 10  1  0
 13 12  1  0
 14 13  2  0
 15 14  1  0
 16 15  3  0
 17 13  1  0
 18 17  2  0
 19 18  1  0
 19 14  1  0
M  END
>  <id>  (1) 
207356

>  <inchikey>  (1) 
AQMCQXPYDBYMNV-JTQLQIEISA-N

>  <alias>  (1) 
A3450a

>  <name>  (1) 
A3450a

>  <smiles>  (1) 
N#Cc1sccc1CC(=O)N1CCC[C@H](C(N)=O)C1

>  <path>  (1) 
/opt/xchem-fragalysis-2/maxwin/2A_HIPPO/A71EV2A_P3only_20241209/aligned_files/A3450a/A3450a.pdb

>  <distance_score>  (1) 
None

>  <energy_score>  (1) 
None

>  <compound>  (1) 
AQMCQXPYDBYMNV-UHFFFAOYSA-N

>  <compound_id>  (1) 
122401

>  <target>  (1) 
A71EV2A

$$$$
