A71EV2A-x2293_A_201_1_A71EV2A-x0526+A+147+1__LIG
     RDKit          3D

 24 27  0  0  0  0  0  0  0  0999 V2000
    9.9400   14.5730   23.7040 O   0  0  0  0  0  0  0  0  0  0  0  0
   10.3640   13.5590   23.1580 C   0  0  0  0  0  0  0  0  0  0  0  0
    9.7400   12.2260   23.4520 C   0  0  0  0  0  0  0  0  0  0  0  0
   10.1470   11.1200   22.8450 N   0  0  0  0  0  0  0  0  0  0  0  0
    8.7410   11.9300   24.4260 C   0  0  0  0  0  0  0  0  0  0  0  0
    8.5400   10.5450   24.3370 C   0  0  0  0  0  0  0  0  0  0  0  0
    7.6030    9.8820   25.1160 C   0  0  0  0  0  0  0  0  0  0  0  0
    6.8690   10.6520   26.0160 C   0  0  0  0  0  0  0  0  0  0  0  0
    7.0690   12.0170   26.1170 C   0  0  0  0  0  0  0  0  0  0  0  0
    8.0090   12.6740   25.3440 C   0  0  0  0  0  0  0  0  0  0  0  0
    9.4210   10.0950   23.3980 N   0  0  0  0  0  0  0  0  0  0  0  0
    9.7400    8.7170   23.0470 C   0  0  0  0  0  0  0  0  0  0  0  0
   11.3970   13.5460   22.3190 N   0  0  0  0  0  0  0  0  0  0  0  0
   12.1120   14.7920   21.9850 C   0  0  0  0  0  0  0  0  0  0  0  0
   12.2380   14.9700   20.4590 C   0  0  1  0  0  0  0  0  0  0  0  0
   10.9260   14.8120   19.8240 N   0  0  0  0  0  0  0  0  0  0  0  0
    9.9550   15.8450   20.1590 C   0  0  0  0  0  0  0  0  0  0  0  0
   10.5240   17.2410   20.1140 C   0  0  0  0  0  0  0  0  0  0  0  0
   11.9140   17.4580   20.1430 C   0  0  0  0  0  0  0  0  0  0  0  0
   12.8820   16.2960   20.0730 C   0  0  0  0  0  0  0  0  0  0  0  0
    9.6610   18.3320   20.0140 C   0  0  0  0  0  0  0  0  0  0  0  0
   10.1550   19.6240   19.9480 C   0  0  0  0  0  0  0  0  0  0  0  0
   11.5160   19.8420   20.0000 C   0  0  0  0  0  0  0  0  0  0  0  0
   12.3930   18.7690   20.0980 C   0  0  0  0  0  0  0  0  0  0  0  0
 12 11  1  0
 11  4  1  0
  4  3  2  0
  3  2  1  0
  2  1  2  0
 13  2  1  0
 14 13  1  0
 15 14  1  1
 15 20  1  0
 20 19  1  0
 19 24  2  0
 24 23  1  0
 23 22  2  0
 22 21  1  0
 21 18  2  0
 19 18  1  0
 18 17  1  0
 17 16  1  0
 16 15  1  0
  5  3  1  0
  5 10  2  0
 10  9  1  0
  9  8  2  0
  8  7  1  0
  7  6  2  0
  6  5  1  0
 11  6  1  0
M  END
$$$$
