A71EV2A-x3480_A_201_1_A71EV2A-x0526+A+147+1__LIG
     RDKit          3D

 21 22  0  0  0  0  0  0  0  0999 V2000
    9.7330   16.6640   19.4020 O   0  0  0  0  0  0  0  0  0  0  0  0
   10.2030   15.5450   19.6460 C   0  0  0  0  0  0  0  0  0  0  0  0
   10.7030   14.7590   18.7110 N   0  0  0  0  0  0  0  0  0  0  0  0
   10.1830   14.9750   21.0540 C   0  0  1  0  0  0  0  0  0  0  0  0
   11.1770   15.6760   22.0080 C   0  0  0  0  0  0  0  0  0  0  0  0
   11.2100   14.9320   23.3450 C   0  0  0  0  0  0  0  0  0  0  0  0
    9.8170   14.8950   23.9700 C   0  0  0  0  0  0  0  0  0  0  0  0
    8.8030   15.0370   21.7070 C   0  0  0  0  0  0  0  0  0  0  0  0
    8.8330   14.3650   23.0120 N   0  0  0  0  0  0  0  0  0  0  0  0
    7.8250   13.5280   23.3730 C   0  0  0  0  0  0  0  0  0  0  0  0
    7.0430   13.1150   22.5450 O   0  0  0  0  0  0  0  0  0  0  0  0
    7.7140   13.2590   24.7100 N   0  0  0  0  0  0  0  0  0  0  0  0
    6.7960   12.4190   25.3840 C   0  0  0  0  0  0  0  0  0  0  0  0
    7.0910   11.0690   25.4680 C   0  0  0  0  0  0  0  0  0  0  0  0
    6.3530   10.2600   26.3130 C   0  0  0  0  0  0  0  0  0  0  0  0
    5.3370   10.7930   27.0850 C   0  0  0  0  0  0  0  0  0  0  0  0
    5.7470   12.9430   26.1340 C   0  0  0  0  0  0  0  0  0  0  0  0
    5.0200   12.1400   27.0080 C   0  0  0  0  0  0  0  0  0  0  0  0
    3.9290   12.7430   27.8710 C   0  0  0  0  0  0  0  0  0  0  0  0
    2.5870   12.5870   27.3120 C   0  0  0  0  0  0  0  0  0  0  0  0
    1.5300   12.4750   26.9010 N   0  0  0  0  0  0  0  0  0  0  0  0
 21 20  3  0
 20 19  1  0
 19 18  1  0
 18 16  2  0
 16 15  1  0
 15 14  2  0
 14 13  1  0
 13 12  1  0
 12 10  1  0
 11 10  2  0
 10  9  1  0
  9  7  1  0
  7  6  1  0
  6  5  1  0
  5  4  1  0
  4  2  1  6
  3  2  1  0
  2  1  2  0
  8  4  1  0
  9  8  1  0
 17 13  2  0
 18 17  1  0
M  END
$$$$
