A71EV2A-x3177_A_201_1_A71EV2A-x0526+A+147+1__LIG
     RDKit          3D

 18 20  0  0  0  0  0  0  0  0999 V2000
    8.9840   14.3780   24.7240 O   0  0  0  0  0  0  0  0  0  0  0  0
    9.4480   13.4940   24.0100 C   0  0  0  0  0  0  0  0  0  0  0  0
   10.4050   13.7380   23.0890 N   0  0  0  0  0  0  0  0  0  0  0  0
   11.0190   15.0600   22.9980 C   0  0  2  0  0  0  0  0  0  0  0  0
   10.5690   16.0120   21.9350 C   0  0  2  0  0  0  0  0  0  0  0  0
    9.4730   15.6280   20.9590 C   0  0  0  0  0  0  0  0  0  0  0  0
    8.1840   15.7060   21.5420 O   0  0  0  0  0  0  0  0  0  0  0  0
   11.9090   15.3520   21.8300 C   0  0  0  0  0  0  0  0  0  0  0  0
    8.9100   12.0830   24.1270 C   0  0  0  0  0  0  0  0  0  0  0  0
    9.4550   11.0480   23.4920 N   0  0  0  0  0  0  0  0  0  0  0  0
    7.8120   11.6520   24.9700 C   0  0  0  0  0  0  0  0  0  0  0  0
    7.7320   10.2690   24.7660 C   0  0  0  0  0  0  0  0  0  0  0  0
    8.7280    9.9390   23.8930 N   0  0  0  0  0  0  0  0  0  0  0  0
    9.0590    8.6200   23.3720 C   0  0  0  0  0  0  0  0  0  0  0  0
    6.8020    9.4840   25.4350 C   0  0  0  0  0  0  0  0  0  0  0  0
    5.9760   10.0930   26.3710 C   0  0  0  0  0  0  0  0  0  0  0  0
    6.0660   11.4640   26.6120 C   0  0  0  0  0  0  0  0  0  0  0  0
    6.9640   12.2490   25.9030 C   0  0  0  0  0  0  0  0  0  0  0  0
 14 13  1  0
 13 10  1  0
 10  9  2  0
  9  2  1  0
  2  1  2  0
  3  2  1  0
  4  3  1  6
  4  8  1  0
  8  5  1  0
  5  4  1  0
  5  6  1  6
  7  6  1  0
 11  9  1  0
 11 18  2  0
 18 17  1  0
 17 16  2  0
 16 15  1  0
 15 12  2  0
 12 11  1  0
 13 12  1  0
M  END
$$$$
