A71EV2A-x2513_A_301_1_A71EV2A-x0526+A+147+1__LIG
     RDKit          3D

 14 15  0  0  0  0  0  0  0  0999 V2000
   13.3560    9.6680   25.5350 O   0  0  0  0  0  0  0  0  0  0  0  0
   12.4090   10.3960   25.1680 C   0  0  0  0  0  0  0  0  0  0  0  0
   11.0310   10.2320   25.3180 N   0  0  0  0  0  0  0  0  0  0  0  0
   10.3070   11.2150   24.6600 C   0  0  0  0  0  0  0  0  0  0  0  0
    8.9350   11.4530   24.6280 C   0  0  0  0  0  0  0  0  0  0  0  0
    7.8490   10.3660   25.4330 Cl  0  0  0  0  0  0  0  0  0  0  0  0
    8.4270   12.5690   23.9850 C   0  0  0  0  0  0  0  0  0  0  0  0
    9.2930   13.4560   23.3620 C   0  0  0  0  0  0  0  0  0  0  0  0
   12.5280   11.6460   24.3380 C   0  0  0  0  0  0  0  0  0  0  0  0
   13.4940   12.2410   24.0960 O   0  0  0  0  0  0  0  0  0  0  0  0
   11.2020   12.0950   24.0320 C   0  0  0  0  0  0  0  0  0  0  0  0
   10.6690   13.2150   23.3580 C   0  0  0  0  0  0  0  0  0  0  0  0
   11.6040   13.9920   22.7170 O   0  0  0  0  0  0  0  0  0  0  0  0
   11.1450   14.9340   21.7440 C   0  0  0  0  0  0  0  0  0  0  0  0
 14 13  1  0
 13 12  1  0
 12  8  2  0
  8  7  1  0
  7  5  2  0
  6  5  1  0
  5  4  1  0
  4 11  2  0
 12 11  1  0
 11  9  1  0
 10  9  2  0
  9  2  1  0
  2  1  2  0
  3  2  1  0
  4  3  1  0
M  END
$$$$
