A71EV2A-x3938_A_201_v2
     RDKit          3D

 18 19  0  0  0  0  0  0  0  0999 V2000
   10.7330   14.5860   18.8500 O   0  0  0  0  0  0  0  0  0  0  0  0
   10.1380   15.2080   19.7390 C   0  0  0  0  0  0  0  0  0  0  0  0
    9.4800   16.3330   19.5130 N   0  0  0  0  0  0  0  0  0  0  0  0
   10.1520   14.7220   21.1780 C   0  0  1  0  0  0  0  0  0  0  0  0
   11.1820   15.4840   22.0330 C   0  0  0  0  0  0  0  0  0  0  0  0
   11.3390   14.7940   23.3820 C   0  0  0  0  0  0  0  0  0  0  0  0
    9.9970   14.7390   24.1000 C   0  0  0  0  0  0  0  0  0  0  0  0
    8.8140   14.7730   21.9190 C   0  0  0  0  0  0  0  0  0  0  0  0
    8.9470   14.1560   23.2470 N   0  0  0  0  0  0  0  0  0  0  0  0
    8.0990   13.1880   23.6490 C   0  0  0  0  0  0  0  0  0  0  0  0
    7.1840   12.8480   22.9320 O   0  0  0  0  0  0  0  0  0  0  0  0
    8.1490   12.5860   25.1510 C   0  0  2  0  0  0  0  0  0  0  0  0
    7.5310   13.6290   26.0890 C   0  0  0  0  0  0  0  0  0  0  0  0
    9.5330   12.4400   25.5120 O   0  0  0  0  0  0  0  0  0  0  0  0
   10.2600   11.5340   24.6600 C   0  0  0  0  0  0  0  0  0  0  0  0
    9.6980   10.1380   24.7020 C   0  0  0  0  0  0  0  0  0  0  0  0
    8.1940   10.1400   24.4970 C   0  0  0  0  0  0  0  0  0  0  0  0
    7.4920   11.2210   25.3210 C   0  0  0  0  0  0  0  0  0  0  0  0
  2  1  2  0
  3  2  1  0
  4  2  1  6
  5  4  1  0
  6  5  1  0
  7  6  1  0
  8  4  1  0
  9  8  1  0
  9  7  1  0
 10  9  1  0
 11 10  2  0
 12 10  1  0
 12 13  1  1
 14 12  1  0
 15 14  1  0
 16 15  1  0
 17 16  1  0
 18 17  1  0
 18 12  1  0
M  END
>  <id>  (1) 
207422

>  <inchikey>  (1) 
YJRYXQGADMRDQO-GXFFZTMASA-N

>  <alias>  (1) 
A3938a

>  <name>  (1) 
A3938a

>  <smiles>  (1) 
C[C@]1(C(=O)N2CCC[C@H](C(N)=O)C2)CCCCO1

>  <path>  (1) 
/opt/xchem-fragalysis-2/maxwin/2A_HIPPO/A71EV2A_P3only_20241212/aligned_files/A3938a/A3938a.pdb

>  <distance_score>  (1) 
None

>  <energy_score>  (1) 
None

>  <compound>  (1) 
YJRYXQGADMRDQO-UHFFFAOYSA-N

>  <compound_id>  (1) 
122549

>  <target>  (1) 
A71EV2A

$$$$
