A71EV2A-x3940_A_201_v2
     RDKit          3D

 21 22  0  0  0  0  0  0  0  0999 V2000
    9.9610   16.9710   19.5070 O   0  0  0  0  0  0  0  0  0  0  0  0
   10.4370   15.8670   19.7840 C   0  0  0  0  0  0  0  0  0  0  0  0
   10.9280   15.0490   18.8690 N   0  0  0  0  0  0  0  0  0  0  0  0
   10.4910   15.3700   21.2180 C   0  0  1  0  0  0  0  0  0  0  0  0
   11.4050   16.2570   22.0770 C   0  0  0  0  0  0  0  0  0  0  0  0
   11.4800   15.7540   23.5210 C   0  0  0  0  0  0  0  0  0  0  0  0
   10.0900   15.6430   24.1230 C   0  0  0  0  0  0  0  0  0  0  0  0
    9.1090   15.3200   21.8780 C   0  0  0  0  0  0  0  0  0  0  0  0
    9.2060   14.8430   23.2620 N   0  0  0  0  0  0  0  0  0  0  0  0
    8.4760   13.7860   23.6830 C   0  0  0  0  0  0  0  0  0  0  0  0
    7.6010   13.2880   22.9930 O   0  0  0  0  0  0  0  0  0  0  0  0
    8.7740   13.2590   25.0750 C   0  0  0  0  0  0  0  0  0  0  0  0
    7.8800   12.1020   25.4580 C   0  0  0  0  0  0  0  0  0  0  0  0
    8.1510   10.8060   25.0090 C   0  0  0  0  0  0  0  0  0  0  0  0
    9.2530   10.6940   24.2040 O   0  0  0  0  0  0  0  0  0  0  0  0
    9.4800    9.4470   23.5480 C   0  0  0  0  0  0  0  0  0  0  0  0
    6.8050   12.2950   26.3220 C   0  0  0  0  0  0  0  0  0  0  0  0
    6.0430   11.2190   26.7260 C   0  0  0  0  0  0  0  0  0  0  0  0
    4.7150   11.4870   27.8220 Cl  0  0  0  0  0  0  0  0  0  0  0  0
    6.3080    9.9430   26.2860 C   0  0  0  0  0  0  0  0  0  0  0  0
    7.3650    9.7340   25.4170 C   0  0  0  0  0  0  0  0  0  0  0  0
  2  1  2  0
  3  2  1  0
  4  2  1  6
  5  4  1  0
  6  5  1  0
  7  6  1  0
  8  4  1  0
  9  8  1  0
  9  7  1  0
 10  9  1  0
 11 10  2  0
 12 10  1  0
 13 12  1  0
 14 13  2  0
 15 14  1  0
 16 15  1  0
 17 13  1  0
 18 17  2  0
 19 18  1  0
 20 18  1  0
 21 20  2  0
 21 14  1  0
M  END
>  <id>  (1) 
207423

>  <inchikey>  (1) 
WOSHQSSTXNWEDB-JTQLQIEISA-N

>  <alias>  (1) 
A3940a

>  <name>  (1) 
A3940a

>  <smiles>  (1) 
COc1ccc(Cl)cc1CC(=O)N1CCC[C@H](C(N)=O)C1

>  <path>  (1) 
/opt/xchem-fragalysis-2/maxwin/2A_HIPPO/A71EV2A_P3only_20241212/aligned_files/A3940a/A3940a.pdb

>  <distance_score>  (1) 
None

>  <energy_score>  (1) 
None

>  <compound>  (1) 
WOSHQSSTXNWEDB-UHFFFAOYSA-N

>  <compound_id>  (1) 
122550

>  <target>  (1) 
A71EV2A

$$$$
