A71EV2A-x4292_A_201_v2
     RDKit          3D

 22 23  0  0  0  0  0  0  0  0999 V2000
    9.5540   10.9600   23.1420 F   0  0  0  0  0  0  0  0  0  0  0  0
    9.2650   10.1580   24.1730 C   0  0  2  0  0  0  0  0  0  0  0  0
   10.3330   10.1780   24.9570 F   0  0  0  0  0  0  0  0  0  0  0  0
    9.2110    8.9060   23.6630 F   0  0  0  0  0  0  0  0  0  0  0  0
    8.0080   10.5710   24.9050 C   0  0  0  0  0  0  0  0  0  0  0  0
    7.0860    9.5890   25.2470 C   0  0  0  0  0  0  0  0  0  0  0  0
    5.9590    9.9590   25.9640 C   0  0  0  0  0  0  0  0  0  0  0  0
    5.6860   11.2150   26.3260 N   0  0  0  0  0  0  0  0  0  0  0  0
    6.5720   12.1460   25.9730 C   0  0  0  0  0  0  0  0  0  0  0  0
    7.7370   11.8970   25.2720 C   0  0  0  0  0  0  0  0  0  0  0  0
    8.7080   13.0120   24.9430 C   0  0  0  0  0  0  0  0  0  0  0  0
    8.4090   13.6520   23.5980 C   0  0  0  0  0  0  0  0  0  0  0  0
    7.4970   13.2510   22.8980 O   0  0  0  0  0  0  0  0  0  0  0  0
    9.1790   14.6980   23.2290 N   0  0  0  0  0  0  0  0  0  0  0  0
   10.1830   15.3650   24.0700 C   0  0  0  0  0  0  0  0  0  0  0  0
   11.5590   15.2800   23.4220 C   0  0  0  0  0  0  0  0  0  0  0  0
   11.5270   15.7880   21.9740 C   0  0  0  0  0  0  0  0  0  0  0  0
    9.0620   15.2860   21.8900 C   0  0  0  0  0  0  0  0  0  0  0  0
   10.3930   15.1410   21.1390 C   0  0  1  0  0  0  0  0  0  0  0  0
   10.2970   15.7460   19.7460 C   0  0  0  0  0  0  0  0  0  0  0  0
    9.8860   16.9040   19.5770 O   0  0  0  0  0  0  0  0  0  0  0  0
   10.6100   14.9480   18.7360 N   0  0  0  0  0  0  0  0  0  0  0  0
  2  1  1  6
  3  2  1  0
  4  2  1  0
  5  2  1  0
  6  5  2  0
  7  6  1  0
  8  7  2  0
  9  8  1  0
 10  5  1  0
 10  9  2  0
 11 10  1  0
 12 11  1  0
 13 12  2  0
 14 12  1  0
 15 14  1  0
 16 15  1  0
 17 16  1  0
 18 14  1  0
 19 18  1  0
 19 17  1  0
 19 20  1  6
 21 20  2  0
 22 20  1  0
M  END
>  <id>  (1) 
207434

>  <inchikey>  (1) 
YLPGSMZMXYJENJ-VIFPVBQESA-N

>  <alias>  (1) 
A4292a

>  <name>  (1) 
A4292a

>  <smiles>  (1) 
NC(=O)[C@H]1CCCN(C(=O)Cc2cnccc2C(F)(F)F)C1

>  <path>  (1) 
/opt/xchem-fragalysis-2/maxwin/2A_HIPPO/A71EV2A_P3only_20241212/aligned_files/A4292a/A4292a.pdb

>  <distance_score>  (1) 
None

>  <energy_score>  (1) 
None

>  <compound>  (1) 
YLPGSMZMXYJENJ-UHFFFAOYSA-N

>  <compound_id>  (1) 
122559

>  <target>  (1) 
A71EV2A

$$$$
