A71EV2A-x3485_A_201_1_A71EV2A-x0526+A+147+1__LIG
     RDKit          3D

 20 21  0  0  0  0  0  0  0  0999 V2000
    9.9230   17.0760   19.5800 O   0  0  0  0  0  0  0  0  0  0  0  0
   10.2600   15.9020   19.8030 C   0  0  0  0  0  0  0  0  0  0  0  0
   10.5830   15.0480   18.8440 N   0  0  0  0  0  0  0  0  0  0  0  0
   10.3210   15.3590   21.2200 C   0  0  1  0  0  0  0  0  0  0  0  0
   11.3890   16.0800   22.0580 C   0  0  0  0  0  0  0  0  0  0  0  0
   11.3570   15.6440   23.5280 C   0  0  0  0  0  0  0  0  0  0  0  0
    9.9530   15.7370   24.1060 C   0  0  0  0  0  0  0  0  0  0  0  0
    8.9490   15.5450   21.8630 C   0  0  0  0  0  0  0  0  0  0  0  0
    8.9740   15.0540   23.2450 N   0  0  0  0  0  0  0  0  0  0  0  0
    8.2690   13.9130   23.5270 C   0  0  0  0  0  0  0  0  0  0  0  0
    7.5580   13.3710   22.6870 O   0  0  0  0  0  0  0  0  0  0  0  0
    8.2580   13.5130   24.8320 N   0  0  0  0  0  0  0  0  0  0  0  0
    7.6700   12.2890   25.2420 C   0  0  0  0  0  0  0  0  0  0  0  0
    6.6840   12.1300   26.2120 C   0  0  0  0  0  0  0  0  0  0  0  0
    6.1630   10.8710   26.4700 C   0  0  0  0  0  0  0  0  0  0  0  0
    6.6320    9.7650   25.7810 C   0  0  0  0  0  0  0  0  0  0  0  0
    8.1570   11.1800   24.5620 C   0  0  0  0  0  0  0  0  0  0  0  0
    7.6450    9.9230   24.8470 C   0  0  0  0  0  0  0  0  0  0  0  0
    8.1480    8.8050   24.2360 O   0  0  0  0  0  0  0  0  0  0  0  0
    9.3810    8.9140   23.5140 C   0  0  0  0  0  0  0  0  0  0  0  0
 20 19  1  0
 19 18  1  0
 18 16  2  0
 16 15  1  0
 15 14  2  0
 14 13  1  0
 13 12  1  0
 12 10  1  0
 11 10  2  0
 10  9  1  0
  9  7  1  0
  7  6  1  0
  6  5  1  0
  5  4  1  0
  4  2  1  6
  3  2  1  0
  2  1  2  0
  8  4  1  0
  9  8  1  0
 17 13  2  0
 18 17  1  0
M  END
$$$$
