A71EV2A-x3264_A_201_1_A71EV2A-x0526+A+147+1__LIG
     RDKit          3D

 20 22  0  0  0  0  0  0  0  0999 V2000
    9.8940   13.9370   24.9270 O   0  0  0  0  0  0  0  0  0  0  0  0
   10.0880   13.1180   24.0300 C   0  0  0  0  0  0  0  0  0  0  0  0
    9.3680   11.7900   24.0340 C   0  0  0  0  0  0  0  0  0  0  0  0
    9.8140   10.7990   23.2730 N   0  0  0  0  0  0  0  0  0  0  0  0
    8.2710   11.3530   24.8510 C   0  0  0  0  0  0  0  0  0  0  0  0
    8.1190    9.9910   24.5230 C   0  0  0  0  0  0  0  0  0  0  0  0
    7.2340    9.1460   25.0720 N   0  0  0  0  0  0  0  0  0  0  0  0
    6.4290    9.6830   26.0130 C   0  0  0  0  0  0  0  0  0  0  0  0
    6.4890   11.0120   26.4230 C   0  0  0  0  0  0  0  0  0  0  0  0
    7.4270   11.8590   25.8390 C   0  0  0  0  0  0  0  0  0  0  0  0
    9.0610    9.6950   23.5820 N   0  0  0  0  0  0  0  0  0  0  0  0
    9.4150    8.3900   23.0420 C   0  0  0  0  0  0  0  0  0  0  0  0
   10.9410   13.3090   23.0160 N   0  0  0  0  0  0  0  0  0  0  0  0
   11.8130   14.4740   22.9370 C   0  0  0  0  0  0  0  0  0  0  0  0
   12.1070   14.8800   21.4880 C   0  0  0  0  0  0  0  0  0  0  0  0
   10.9470   15.5250   20.7910 C   0  0  0  0  0  0  0  0  0  0  0  0
   10.2090   16.5410   21.3880 N   0  0  0  0  0  0  0  0  0  0  0  0
    9.3190   16.8380   20.5100 C   0  0  0  0  0  0  0  0  0  0  0  0
    9.3810   16.1330   19.3620 O   0  0  0  0  0  0  0  0  0  0  0  0
   10.4360   15.2860   19.5730 C   0  0  0  0  0  0  0  0  0  0  0  0
 12 11  1  0
 11  4  1  0
  4  3  2  0
  3  2  1  0
  2  1  2  0
 13  2  1  0
 14 13  1  0
 15 14  1  0
 16 15  1  0
 16 20  2  0
 20 19  1  0
 19 18  1  0
 18 17  2  0
 17 16  1  0
  5  3  1  0
  5 10  2  0
 10  9  1  0
  9  8  2  0
  8  7  1  0
  7  6  2  0
  6  5  1  0
 11  6  1  0
M  END
$$$$
