ver_1.2
     RDKit          3D

 21 22  0  0  0  0  0  0  0  0999 V2000
    1.8018   -0.5447    2.8633 C   0  0  0  0  0  0  0  0  0  0  0  0
    2.3633    0.7971    1.7969 S   0  0  0  0  0  0  0  0  0  0  0  0
    2.9659    0.1794    0.2240 C   0  0  0  0  0  0  0  0  0  0  0  0
    4.3116   -0.1699    0.1497 C   0  0  0  0  0  0  0  0  0  0  0  0
    5.4256   -0.0174    1.7120 Br  0  0  0  0  0  0  0  0  0  0  0  0
    4.8078   -0.6169   -1.0480 C   0  0  0  0  0  0  0  0  0  0  0  0
    3.9724   -0.7114   -2.1466 C   0  0  0  0  0  0  0  0  0  0  0  0
    2.6344   -0.3592   -2.0539 C   0  0  0  0  0  0  0  0  0  0  0  0
    2.1020    0.1006   -0.8410 C   0  0  0  0  0  0  0  0  0  0  0  0
    0.7005    0.4718   -0.6870 C   0  0  0  0  0  0  0  0  0  0  0  0
   -0.1759   -0.5136   -0.0703 C   0  0  0  0  0  0  0  0  0  0  0  0
    0.2979   -1.6235    0.2577 O   0  0  0  0  0  0  0  0  0  0  0  0
   -1.5473   -0.2763    0.1783 N   0  0  0  0  0  0  0  0  0  0  0  0
   -2.4047   -1.2716    0.7928 C   0  0  0  0  0  0  0  0  0  0  0  0
   -3.3593   -1.7403   -0.2954 C   0  0  0  0  0  0  0  0  0  0  0  0
   -3.4692   -0.7108   -1.4001 C   0  0  0  0  0  0  0  0  0  0  0  0
   -3.5153    0.6784   -0.8062 C   0  0  0  0  0  0  0  0  0  0  0  0
   -4.5526    0.7808    0.2442 C   0  0  0  0  0  0  0  0  0  0  0  0
   -5.9120    0.5232   -0.1134 N   0  0  0  0  0  0  0  0  0  0  0  0
   -4.2683    1.0835    1.4195 O   0  0  0  0  0  0  0  0  0  0  0  0
   -2.1787    1.0031   -0.1764 C   0  0  0  0  0  0  0  0  0  0  0  0
  1  2  1  0
  2  3  1  0
  3  4  2  0
  4  5  1  0
  4  6  1  0
  6  7  2  0
  7  8  1  0
  8  9  2  0
  9 10  1  0
 10 11  1  0
 11 12  2  0
 11 13  1  0
 13 14  1  0
 14 15  1  0
 15 16  1  0
 16 17  1  0
 17 18  1  0
 18 19  1  0
 18 20  2  0
 17 21  1  0
  9  3  1  0
 21 13  1  0
M  END
>  <ref_url>  (1) 
https://hippo.winokan.com

>  <submitter_name>  (1) 
Max Winokan

>  <submitter_email>  (1) 
max.winokan@diamond.ac.uk

>  <submitter_institution>  (1) 
DLS

>  <generation_date>  (1) 
2025-01-22

>  <method>  (1) 
A4386a_elab_cluster_poses

>  <observation_longname>  (1) 
observation_longname

>  <ConformerSites alias>  (1) 
ConformerSites alias

>  <CanonSites alias>  (1) 
CanonSites alias

>  <CrystalformSites alias>  (1) 
CrystalformSites alias

>  <Quatassemblies alias>  (1) 
Quatassemblies alias

>  <Crystalforms alias>  (1) 
Crystalforms alias

>  <ConformerSites upload name>  (1) 
ConformerSites upload name

>  <CanonSites upload name>  (1) 
CanonSites upload name

>  <CrystalformSites upload name>  (1) 
CrystalformSites upload name

>  <Quatassemblies upload name>  (1) 
Quatassemblies upload name

>  <Crystalforms upload name>  (1) 
Crystalforms upload name

>  <ConformerSites short tag>  (1) 
ConformerSites short tag

>  <CanonSites short tag>  (1) 
CanonSites short tag

>  <CrystalformSites short tag>  (1) 
CrystalformSites short tag

>  <Quatassemblies short tag>  (1) 
Quatassemblies short tag

>  <Crystalforms short tag>  (1) 
Crystalforms short tag

>  <Centroid res>  (1) 
Centroid res

>  <Experiment code>  (1) 
Experiment code

>  <Pose>  (1) 
Pose

>  <HIPPO Pose ID>  (1) 
HIPPO Pose ID

>  <HIPPO Compound ID>  (1) 
HIPPO Compound ID

>  <smiles>  (1) 
smiles

>  <ref_pdb>  (1) 
protein reference

>  <ref_mols>  (1) 
fragment inspirations

>  <original ID>  (1) 
original ID

>  <compound inchikey>  (1) 
compound inchikey

$$$$
A4290a
     RDKit          3D

 21 22  0  0  0  0  0  0  0  0999 V2000
    9.8110   17.0580   19.5230 O   0  0  0  0  0  0  0  0  0  0  0  0
   10.2100   15.9110   19.7470 C   0  0  0  0  0  0  0  0  0  0  0  0
   10.5340   15.0540   18.7940 N   0  0  0  0  0  0  0  0  0  0  0  0
   10.3540   15.3970   21.1670 C   0  0  1  0  0  0  0  0  0  0  0  0
   11.5490   16.0470   21.8880 C   0  0  0  0  0  0  0  0  0  0  0  0
   11.6870   15.5450   23.3290 C   0  0  0  0  0  0  0  0  0  0  0  0
   10.3740   15.6810   24.0800 C   0  0  0  0  0  0  0  0  0  0  0  0
    9.1020   15.6830   21.9900 C   0  0  0  0  0  0  0  0  0  0  0  0
    9.2930   15.0630   23.3000 N   0  0  0  0  0  0  0  0  0  0  0  0
    8.6580   13.9160   23.6030 C   0  0  0  0  0  0  0  0  0  0  0  0
    7.7170   13.4960   22.9460 O   0  0  0  0  0  0  0  0  0  0  0  0
    9.2100   13.1350   24.7760 C   0  0  0  0  0  0  0  0  0  0  0  0
    8.3620   11.9110   25.0120 C   0  0  0  0  0  0  0  0  0  0  0  0
    7.1730   11.9690   25.7550 C   0  0  0  0  0  0  0  0  0  0  0  0
    6.5700   13.5820   26.3880 S   0  0  0  0  0  0  0  0  0  0  0  0
    5.2300   13.9810   25.2620 C   0  0  0  0  0  0  0  0  0  0  0  0
    8.7470   10.6910   24.4580 C   0  0  0  0  0  0  0  0  0  0  0  0
    8.0010    9.5490   24.6660 C   0  0  0  0  0  0  0  0  0  0  0  0
    6.8560    9.6010   25.4370 C   0  0  0  0  0  0  0  0  0  0  0  0
    6.4440   10.8120   25.9640 C   0  0  0  0  0  0  0  0  0  0  0  0
    4.8190   10.8110   26.9290 Br  0  0  0  0  0  0  0  0  0  0  0  0
  2  1  2  0
  3  2  1  0
  4  2  1  6
  5  4  1  0
  6  5  1  0
  7  6  1  0
  8  4  1  0
  9  8  1  0
  9  7  1  0
 10  9  1  0
 11 10  2  0
 12 10  1  0
 13 12  1  0
 14 13  2  0
 15 14  1  0
 16 15  1  0
 17 13  1  0
 18 17  2  0
 19 18  1  0
 20 19  2  0
 20 14  1  0
 21 20  1  0
M  END
>  <alias>  (1) 
A4290a

>  <Experiment code>  (1) 
A71EV2A-x4290

>  <CrystalformSites upload name>  (1) 
F8h - A71EV2A-x0884/A/147/1

>  <inchikey>  (1) 
IQRUJMCPLXCOCF-NSHDSACASA-N

>  <Crystalforms upload name>  (1) 
F8 - A712A/x4271/2.1/refmac1/1st/ref

>  <Quatassemblies upload name>  (1) 
A1 - monomer

>  <ConformerSites alias>  (1) 
1a - A0526/A/147

>  <ConformerSites short tag>  (1) 
1a - A0526/A/147

>  <Crystalforms short tag>  (1) 
F8 - A712A/x4271/2.1/refmac1/1st/ref

>  <Centroid res>  (1) 
A71EV2A-x0526/A/133/A_v1

>  <Quatassemblies short tag>  (1) 
A1 - monomer

>  <observation_longname>  (1) 
A71EV2A-x4290_A_201_v1

>  <name>  (1) 
A4290a

>  <CanonSites upload name>  (1) 
1 - A71EV2A-x0526/A/147/1

>  <tags>  (1) 
['[Other] upload_061224', '[Other] upload_1 2024-12-06', 'P3_20241211']

>  <energy_score>  (1) 
nan

>  <original SMILES>  (1) 
CSc1c(Br)cccc1CC(=O)N1CCC[C@H](C(N)=O)C1

>  <ref_mols>  (1) 
A4290a

>  <Pose>  (1) 
A4290a

>  <distance_score>  (1) 
nan

>  <ConformerSites upload name>  (1) 
1a - A71EV2A-x0526/A/147

>  <HIPPO Pose ID>  (1) 
207415

>  <Crystalforms alias>  (1) 
F8 - A712A/x4271/2.1/refmac1/1st/ref

>  <original ID>  (1) 
A4290a

>  <CanonSites alias>  (1) 
1 - Active Site

>  <CrystalformSites alias>  (1) 
F8h - A0884/A/147

>  <ref_pdb>  (1) 
A4290a

>  <CanonSites short tag>  (1) 
1 - A0526/A/147/1

>  <Quatassemblies alias>  (1) 
A1 - monomer

>  <HIPPO Compound ID>  (1) 
122490

>  <CrystalformSites short tag>  (1) 
F8h - A0884/A/147

$$$$
CIPSLIIOJPGGQL-DGCLKSJQSA-N
     RDKit          3D

 21 23  0  0  0  0  0  0  0  0999 V2000
   10.8694   14.6573   19.3142 N   0  0  0  0  0  0  0  0  0  0  0  0
   10.4267   15.9583   19.7371 C   0  0  0  0  0  0  0  0  0  0  0  0
   10.3039   16.9783   19.1213 O   0  0  0  0  0  0  0  0  0  0  0  0
   10.1310   16.0646   21.2505 C   0  0  2  0  0  0  0  0  0  0  0  0
   11.2882   15.7381   22.1731 C   0  0  0  0  0  0  0  0  0  0  0  0
   10.7624   15.8597   23.5946 C   0  0  0  0  0  0  0  0  0  0  0  0
    9.2546   15.5757   23.6396 C   0  0  0  0  0  0  0  0  0  0  0  0
    8.9016   14.3345   22.8555 N   0  0  0  0  0  0  0  0  0  0  0  0
    7.8513   13.6208   23.5118 C   0  0  0  0  0  0  0  0  0  0  0  0
    6.6599   13.6973   23.3855 O   0  0  0  0  0  0  0  0  0  0  0  0
    8.4829   12.5298   24.4487 C   0  0  2  0  0  0  0  0  0  0  0  0
    8.9979   11.4705   23.4785 C   0  0  0  0  0  0  0  0  0  0  0  0
    9.3128   10.0881   23.9722 C   0  0  0  0  0  0  0  0  0  0  0  0
    7.9128    9.3288   24.7930 S   0  0  0  0  0  0  0  0  0  0  0  0
    7.1479   10.6820   25.6425 C   0  0  0  0  0  0  0  0  0  0  0  0
    6.1245   10.3203   26.5374 C   0  0  0  0  0  0  0  0  0  0  0  0
    5.4706   11.2742   27.3119 C   0  0  0  0  0  0  0  0  0  0  0  0
    5.8345   12.6070   27.2000 C   0  0  0  0  0  0  0  0  0  0  0  0
    6.8303   12.9799   26.2967 C   0  0  0  0  0  0  0  0  0  0  0  0
    7.4827   12.0304   25.4803 C   0  0  0  0  0  0  0  0  0  0  0  0
    8.8560   15.3368   21.7081 C   0  0  0  0  0  0  0  0  0  0  0  0
  1  2  1  0
  2  3  2  0
  4  2  1  6
  4  5  1  0
  5  6  1  0
  6  7  1  0
  7  8  1  0
  8  9  1  0
  9 10  2  0
 11  9  1  6
 11 12  1  0
 12 13  1  0
 13 14  1  0
 14 15  1  0
 15 16  2  0
 16 17  1  0
 17 18  2  0
 18 19  1  0
 19 20  2  0
  8 21  1  0
 21  4  1  0
 20 11  1  0
 20 15  1  0
M  END
>  <alias>  (2) 
None

>  <Experiment code>  (2) 
nan

>  <CrystalformSites upload name>  (2) 
nan

>  <inchikey>  (2) 
CIPSLIIOJPGGQL-DGCLKSJQSA-N

>  <Crystalforms upload name>  (2) 
nan

>  <Quatassemblies upload name>  (2) 
nan

>  <ConformerSites alias>  (2) 
nan

>  <ConformerSites short tag>  (2) 
nan

>  <Crystalforms short tag>  (2) 
nan

>  <Centroid res>  (2) 
nan

>  <Quatassemblies short tag>  (2) 
nan

>  <observation_longname>  (2) 
nan

>  <name>  (2) 
CIPSLIIOJPGGQL-DGCLKSJQSA-N

>  <CanonSites upload name>  (2) 
nan

>  <tags>  (2) 
[]

>  <energy_score>  (2) 
123.458214

>  <original SMILES>  (2) 
NC(=O)[C@@H]1CCCN(C(=O)[C@@H]2CCSc3ccccc32)C1

>  <ref_mols>  (2) 
A4386a

>  <Pose>  (2) 
nan

>  <distance_score>  (2) 
1.071217

>  <ConformerSites upload name>  (2) 
nan

>  <HIPPO Pose ID>  (2) 
207625

>  <Crystalforms alias>  (2) 
nan

>  <original ID>  (2) 
CIPSLIIOJPGGQL-DGCLKSJQSA-N

>  <CanonSites alias>  (2) 
nan

>  <CrystalformSites alias>  (2) 
nan

>  <ref_pdb>  (2) 
A4386a

>  <CanonSites short tag>  (2) 
nan

>  <Quatassemblies alias>  (2) 
nan

>  <HIPPO Compound ID>  (2) 
122657

>  <CrystalformSites short tag>  (2) 
nan

$$$$
CIPSLIIOJPGGQL-WCQYABFASA-N
     RDKit          3D

 21 23  0  0  0  0  0  0  0  0999 V2000
   11.9967   15.5094   19.3341 N   0  0  0  0  0  0  0  0  0  0  0  0
   10.6330   15.6593   19.7894 C   0  0  0  0  0  0  0  0  0  0  0  0
    9.6488   16.0063   19.2021 O   0  0  0  0  0  0  0  0  0  0  0  0
   10.5061   15.2860   21.2727 C   0  0  1  0  0  0  0  0  0  0  0  0
   11.0298   16.4066   22.1512 C   0  0  0  0  0  0  0  0  0  0  0  0
   10.4614   16.2022   23.5384 C   0  0  0  0  0  0  0  0  0  0  0  0
    8.9736   15.8374   23.4345 C   0  0  0  0  0  0  0  0  0  0  0  0
    8.7861   14.3979   22.9764 N   0  0  0  0  0  0  0  0  0  0  0  0
    7.5912   13.8470   23.5498 C   0  0  0  0  0  0  0  0  0  0  0  0
    6.4654   13.8272   23.1351 O   0  0  0  0  0  0  0  0  0  0  0  0
    7.9810   13.2147   24.9102 C   0  0  2  0  0  0  0  0  0  0  0  0
    9.2390   12.3523   24.7937 C   0  0  0  0  0  0  0  0  0  0  0  0
    8.9861   11.0637   24.0385 C   0  0  0  0  0  0  0  0  0  0  0  0
    7.9106    9.9462   24.9558 S   0  0  0  0  0  0  0  0  0  0  0  0
    6.7855   11.0838   25.7334 C   0  0  0  0  0  0  0  0  0  0  0  0
    5.7829   10.4923   26.5198 C   0  0  0  0  0  0  0  0  0  0  0  0
    4.8542   11.2738   27.2019 C   0  0  0  0  0  0  0  0  0  0  0  0
    4.9041   12.6566   27.0870 C   0  0  0  0  0  0  0  0  0  0  0  0
    5.8985   13.2558   26.3137 C   0  0  0  0  0  0  0  0  0  0  0  0
    6.8663   12.4836   25.6434 C   0  0  0  0  0  0  0  0  0  0  0  0
    9.0302   15.0234   21.6298 C   0  0  0  0  0  0  0  0  0  0  0  0
  1  2  1  0
  2  3  2  0
  4  2  1  6
  4  5  1  0
  5  6  1  0
  6  7  1  0
  7  8  1  0
  8  9  1  0
  9 10  2  0
 11  9  1  6
 11 12  1  0
 12 13  1  0
 13 14  1  0
 14 15  1  0
 15 16  2  0
 16 17  1  0
 17 18  2  0
 18 19  1  0
 19 20  2  0
  8 21  1  0
 21  4  1  0
 20 11  1  0
 20 15  1  0
M  END
>  <alias>  (3) 
None

>  <Experiment code>  (3) 
nan

>  <CrystalformSites upload name>  (3) 
nan

>  <inchikey>  (3) 
CIPSLIIOJPGGQL-WCQYABFASA-N

>  <Crystalforms upload name>  (3) 
nan

>  <Quatassemblies upload name>  (3) 
nan

>  <ConformerSites alias>  (3) 
nan

>  <ConformerSites short tag>  (3) 
nan

>  <Crystalforms short tag>  (3) 
nan

>  <Centroid res>  (3) 
nan

>  <Quatassemblies short tag>  (3) 
nan

>  <observation_longname>  (3) 
nan

>  <name>  (3) 
CIPSLIIOJPGGQL-WCQYABFASA-N

>  <CanonSites upload name>  (3) 
nan

>  <tags>  (3) 
[]

>  <energy_score>  (3) 
154.161197

>  <original SMILES>  (3) 
NC(=O)[C@H]1CCCN(C(=O)[C@@H]2CCSc3ccccc32)C1

>  <ref_mols>  (3) 
A4386a

>  <Pose>  (3) 
nan

>  <distance_score>  (3) 
1.30082

>  <ConformerSites upload name>  (3) 
nan

>  <HIPPO Pose ID>  (3) 
207626

>  <Crystalforms alias>  (3) 
nan

>  <original ID>  (3) 
CIPSLIIOJPGGQL-WCQYABFASA-N

>  <CanonSites alias>  (3) 
nan

>  <CrystalformSites alias>  (3) 
nan

>  <ref_pdb>  (3) 
A4386a

>  <CanonSites short tag>  (3) 
nan

>  <Quatassemblies alias>  (3) 
nan

>  <HIPPO Compound ID>  (3) 
122657

>  <CrystalformSites short tag>  (3) 
nan

$$$$
CIPSLIIOJPGGQL-DGCLKSJQSA-N
     RDKit          3D

 21 23  0  0  0  0  0  0  0  0999 V2000
   10.8691   14.6520   19.3237 N   0  0  0  0  0  0  0  0  0  0  0  0
   10.4247   15.9570   19.7321 C   0  0  0  0  0  0  0  0  0  0  0  0
   10.3076   16.9716   19.1067 O   0  0  0  0  0  0  0  0  0  0  0  0
   10.1229   16.0752   21.2439 C   0  0  2  0  0  0  0  0  0  0  0  0
   11.2796   15.7593   22.1712 C   0  0  0  0  0  0  0  0  0  0  0  0
   10.7502   15.8795   23.5914 C   0  0  0  0  0  0  0  0  0  0  0  0
    9.2443   15.5849   23.6350 C   0  0  0  0  0  0  0  0  0  0  0  0
    8.8995   14.3418   22.8496 N   0  0  0  0  0  0  0  0  0  0  0  0
    7.8519   13.6218   23.5038 C   0  0  0  0  0  0  0  0  0  0  0  0
    6.6603   13.6918   23.3754 O   0  0  0  0  0  0  0  0  0  0  0  0
    8.4861   12.5340   24.4430 C   0  0  2  0  0  0  0  0  0  0  0  0
    9.0009   11.4726   23.4751 C   0  0  0  0  0  0  0  0  0  0  0  0
    9.3154   10.0908   23.9711 C   0  0  0  0  0  0  0  0  0  0  0  0
    7.9145    9.3333   24.7918 S   0  0  0  0  0  0  0  0  0  0  0  0
    7.1514   10.6879   25.6405 C   0  0  0  0  0  0  0  0  0  0  0  0
    6.1283   10.3278   26.5364 C   0  0  0  0  0  0  0  0  0  0  0  0
    5.4754   11.2831   27.3101 C   0  0  0  0  0  0  0  0  0  0  0  0
    5.8400   12.6155   27.1964 C   0  0  0  0  0  0  0  0  0  0  0  0
    6.8355   12.9869   26.2920 C   0  0  0  0  0  0  0  0  0  0  0  0
    7.4870   12.0360   25.4765 C   0  0  0  0  0  0  0  0  0  0  0  0
    8.8503   15.3442   21.7027 C   0  0  0  0  0  0  0  0  0  0  0  0
  1  2  1  0
  2  3  2  0
  4  2  1  6
  4  5  1  0
  5  6  1  0
  6  7  1  0
  7  8  1  0
  8  9  1  0
  9 10  2  0
 11  9  1  6
 11 12  1  0
 12 13  1  0
 13 14  1  0
 14 15  1  0
 15 16  2  0
 16 17  1  0
 17 18  2  0
 18 19  1  0
 19 20  2  0
  8 21  1  0
 21  4  1  0
 20 11  1  0
 20 15  1  0
M  END
>  <alias>  (4) 
None

>  <Experiment code>  (4) 
nan

>  <CrystalformSites upload name>  (4) 
nan

>  <inchikey>  (4) 
CIPSLIIOJPGGQL-DGCLKSJQSA-N

>  <Crystalforms upload name>  (4) 
nan

>  <Quatassemblies upload name>  (4) 
nan

>  <ConformerSites alias>  (4) 
nan

>  <ConformerSites short tag>  (4) 
nan

>  <Crystalforms short tag>  (4) 
nan

>  <Centroid res>  (4) 
nan

>  <Quatassemblies short tag>  (4) 
nan

>  <observation_longname>  (4) 
nan

>  <name>  (4) 
CIPSLIIOJPGGQL-DGCLKSJQSA-N

>  <CanonSites upload name>  (4) 
nan

>  <tags>  (4) 
[]

>  <energy_score>  (4) 
-54.960613

>  <original SMILES>  (4) 
NC(=O)[C@@H]1CCCN(C(=O)[C@@H]2CCSc3ccccc32)C1

>  <ref_mols>  (4) 
A4386a

>  <Pose>  (4) 
nan

>  <distance_score>  (4) 
1.074046

>  <ConformerSites upload name>  (4) 
nan

>  <HIPPO Pose ID>  (4) 
207627

>  <Crystalforms alias>  (4) 
nan

>  <original ID>  (4) 
CIPSLIIOJPGGQL-DGCLKSJQSA-N

>  <CanonSites alias>  (4) 
nan

>  <CrystalformSites alias>  (4) 
nan

>  <ref_pdb>  (4) 
A4386a

>  <CanonSites short tag>  (4) 
nan

>  <Quatassemblies alias>  (4) 
nan

>  <HIPPO Compound ID>  (4) 
122657

>  <CrystalformSites short tag>  (4) 
nan

$$$$
OWXSCDCPVZGTHY-NTZNESFSSA-N
     RDKit          3D

 21 24  0  0  0  0  0  0  0  0999 V2000
    9.5561   15.4945   19.4286 O   0  0  0  0  0  0  0  0  0  0  0  0
    9.8993   15.5875   20.5862 C   0  0  0  0  0  0  0  0  0  0  0  0
   10.6912   14.7143   21.3220 N   0  0  0  0  0  0  0  0  0  0  0  0
   11.1465   15.4077   22.5030 C   0  0  1  0  0  0  0  0  0  0  0  0
   11.0657   16.8448   22.0538 C   0  0  0  0  0  0  0  0  0  0  0  0
    9.6606   16.7436   21.4994 C   0  0  2  0  0  0  0  0  0  0  0  0
    8.7099   16.3402   22.6566 C   0  0  0  0  0  0  0  0  0  0  0  0
    8.6785   14.9770   23.3660 N   0  0  0  0  0  0  0  0  0  0  0  0
    8.0121   14.5634   24.5709 C   0  0  0  0  0  0  0  0  0  0  0  0
    7.3866   15.2030   25.3737 O   0  0  0  0  0  0  0  0  0  0  0  0
    8.2838   13.0238   24.8588 C   0  0  2  0  0  0  0  0  0  0  0  0
    8.5458   12.2669   23.5505 C   0  0  0  0  0  0  0  0  0  0  0  0
    9.1566   10.9030   23.7631 C   0  0  0  0  0  0  0  0  0  0  0  0
    8.0799    9.7668   24.6284 S   0  0  0  0  0  0  0  0  0  0  0  0
    7.0881   10.8633   25.6193 C   0  0  0  0  0  0  0  0  0  0  0  0
    6.1120   10.1932   26.3845 C   0  0  0  0  0  0  0  0  0  0  0  0
    5.3054   10.8731   27.2852 C   0  0  0  0  0  0  0  0  0  0  0  0
    5.4800   12.2351   27.4386 C   0  0  0  0  0  0  0  0  0  0  0  0
    6.4369   12.9117   26.6726 C   0  0  0  0  0  0  0  0  0  0  0  0
    7.2363   12.2639   25.7077 C   0  0  0  0  0  0  0  0  0  0  0  0
   10.1246   15.3420   23.6705 C   0  0  0  0  0  0  0  0  0  0  0  0
  1  2  2  0
  2  3  1  0
  3  4  1  0
  4  5  1  0
  5  6  1  0
  6  7  1  1
  7  8  1  0
  8  9  1  0
  9 10  2  0
 11  9  1  6
 11 12  1  0
 12 13  1  0
 13 14  1  0
 14 15  1  0
 15 16  2  0
 16 17  1  0
 17 18  2  0
 18 19  1  0
 19 20  2  0
  8 21  1  0
  6  2  1  0
 20 11  1  0
  4 21  1  1
 20 15  1  0
M  END
>  <alias>  (5) 
None

>  <Experiment code>  (5) 
nan

>  <CrystalformSites upload name>  (5) 
nan

>  <inchikey>  (5) 
OWXSCDCPVZGTHY-NTZNESFSSA-N

>  <Crystalforms upload name>  (5) 
nan

>  <Quatassemblies upload name>  (5) 
nan

>  <ConformerSites alias>  (5) 
nan

>  <ConformerSites short tag>  (5) 
nan

>  <Crystalforms short tag>  (5) 
nan

>  <Centroid res>  (5) 
nan

>  <Quatassemblies short tag>  (5) 
nan

>  <observation_longname>  (5) 
nan

>  <name>  (5) 
OWXSCDCPVZGTHY-NTZNESFSSA-N

>  <CanonSites upload name>  (5) 
nan

>  <tags>  (5) 
[]

>  <energy_score>  (5) 
-167.271629

>  <original SMILES>  (5) 
O=C1N[C@H]2C[C@@H]1CN(C(=O)[C@@H]1CCSc3ccccc31)C2

>  <ref_mols>  (5) 
A4386a

>  <Pose>  (5) 
nan

>  <distance_score>  (5) 
1.499902

>  <ConformerSites upload name>  (5) 
nan

>  <HIPPO Pose ID>  (5) 
207642

>  <Crystalforms alias>  (5) 
nan

>  <original ID>  (5) 
OWXSCDCPVZGTHY-NTZNESFSSA-N

>  <CanonSites alias>  (5) 
nan

>  <CrystalformSites alias>  (5) 
nan

>  <ref_pdb>  (5) 
A4386a

>  <CanonSites short tag>  (5) 
nan

>  <Quatassemblies alias>  (5) 
nan

>  <HIPPO Compound ID>  (5) 
122661

>  <CrystalformSites short tag>  (5) 
nan

$$$$
OWXSCDCPVZGTHY-NTZNESFSSA-N
     RDKit          3D

 21 24  0  0  0  0  0  0  0  0999 V2000
    9.9317   15.2026   19.4155 O   0  0  0  0  0  0  0  0  0  0  0  0
   10.1573   15.4309   20.5836 C   0  0  0  0  0  0  0  0  0  0  0  0
   10.9228   14.6745   21.4647 N   0  0  0  0  0  0  0  0  0  0  0  0
   11.2303   15.4947   22.6114 C   0  0  1  0  0  0  0  0  0  0  0  0
   11.1254   16.8773   22.0207 C   0  0  0  0  0  0  0  0  0  0  0  0
    9.7809   16.6548   21.3564 C   0  0  2  0  0  0  0  0  0  0  0  0
    8.7457   16.3126   22.4605 C   0  0  0  0  0  0  0  0  0  0  0  0
    8.7202   14.9885   23.2462 N   0  0  0  0  0  0  0  0  0  0  0  0
    7.9514   14.5962   24.3989 C   0  0  0  0  0  0  0  0  0  0  0  0
    7.2041   15.2342   25.0905 O   0  0  0  0  0  0  0  0  0  0  0  0
    8.2953   13.0924   24.7928 C   0  0  2  0  0  0  0  0  0  0  0  0
    8.5730   12.2863   23.5186 C   0  0  0  0  0  0  0  0  0  0  0  0
    9.1702   10.9263   23.7763 C   0  0  0  0  0  0  0  0  0  0  0  0
    8.0655    9.8192   24.6450 S   0  0  0  0  0  0  0  0  0  0  0  0
    7.1011   10.9506   25.6256 C   0  0  0  0  0  0  0  0  0  0  0  0
    6.1279   10.3128   26.4215 C   0  0  0  0  0  0  0  0  0  0  0  0
    5.3596   11.0261   27.3311 C   0  0  0  0  0  0  0  0  0  0  0  0
    5.5761   12.3852   27.4683 C   0  0  0  0  0  0  0  0  0  0  0  0
    6.5285   13.0290   26.6703 C   0  0  0  0  0  0  0  0  0  0  0  0
    7.2755   12.3498   25.6859 C   0  0  0  0  0  0  0  0  0  0  0  0
   10.0995   15.4665   23.6784 C   0  0  0  0  0  0  0  0  0  0  0  0
  1  2  2  0
  2  3  1  0
  3  4  1  0
  4  5  1  0
  5  6  1  0
  6  7  1  1
  7  8  1  0
  8  9  1  0
  9 10  2  0
 11  9  1  6
 11 12  1  0
 12 13  1  0
 13 14  1  0
 14 15  1  0
 15 16  2  0
 16 17  1  0
 17 18  2  0
 18 19  1  0
 19 20  2  0
  8 21  1  0
  6  2  1  0
 20 11  1  0
  4 21  1  1
 20 15  1  0
M  END
>  <alias>  (6) 
None

>  <Experiment code>  (6) 
nan

>  <CrystalformSites upload name>  (6) 
nan

>  <inchikey>  (6) 
OWXSCDCPVZGTHY-NTZNESFSSA-N

>  <Crystalforms upload name>  (6) 
nan

>  <Quatassemblies upload name>  (6) 
nan

>  <ConformerSites alias>  (6) 
nan

>  <ConformerSites short tag>  (6) 
nan

>  <Crystalforms short tag>  (6) 
nan

>  <Centroid res>  (6) 
nan

>  <Quatassemblies short tag>  (6) 
nan

>  <observation_longname>  (6) 
nan

>  <name>  (6) 
OWXSCDCPVZGTHY-NTZNESFSSA-N

>  <CanonSites upload name>  (6) 
nan

>  <tags>  (6) 
[]

>  <energy_score>  (6) 
3.011999

>  <original SMILES>  (6) 
O=C1N[C@H]2C[C@@H]1CN(C(=O)[C@@H]1CCSc3ccccc31)C2

>  <ref_mols>  (6) 
A4386a

>  <Pose>  (6) 
nan

>  <distance_score>  (6) 
1.506907

>  <ConformerSites upload name>  (6) 
nan

>  <HIPPO Pose ID>  (6) 
207643

>  <Crystalforms alias>  (6) 
nan

>  <original ID>  (6) 
OWXSCDCPVZGTHY-NTZNESFSSA-N

>  <CanonSites alias>  (6) 
nan

>  <CrystalformSites alias>  (6) 
nan

>  <ref_pdb>  (6) 
A4386a

>  <CanonSites short tag>  (6) 
nan

>  <Quatassemblies alias>  (6) 
nan

>  <HIPPO Compound ID>  (6) 
122661

>  <CrystalformSites short tag>  (6) 
nan

$$$$
OWXSCDCPVZGTHY-DMDPSCGWSA-N
     RDKit          3D

 21 24  0  0  0  0  0  0  0  0999 V2000
    9.7110   17.5280   19.9626 O   0  0  0  0  0  0  0  0  0  0  0  0
   10.0599   16.7876   20.8545 C   0  0  0  0  0  0  0  0  0  0  0  0
   10.5887   17.1321   22.0930 N   0  0  0  0  0  0  0  0  0  0  0  0
   10.7469   15.9315   22.8875 C   0  0  2  0  0  0  0  0  0  0  0  0
   11.0677   14.9328   21.7966 C   0  0  0  0  0  0  0  0  0  0  0  0
    9.8815   15.3035   20.9140 C   0  0  1  0  0  0  0  0  0  0  0  0
    8.5731   15.1592   21.7242 C   0  0  0  0  0  0  0  0  0  0  0  0
    8.6618   14.2494   22.9109 N   0  0  0  0  0  0  0  0  0  0  0  0
    7.6494   13.7817   23.8054 C   0  0  0  0  0  0  0  0  0  0  0  0
    6.4874   14.0710   23.8867 O   0  0  0  0  0  0  0  0  0  0  0  0
    8.2755   12.6441   24.6987 C   0  0  2  0  0  0  0  0  0  0  0  0
    8.7802   11.6089   23.6784 C   0  0  0  0  0  0  0  0  0  0  0  0
    9.0546   10.1942   24.0997 C   0  0  0  0  0  0  0  0  0  0  0  0
    7.6754    9.4262   24.9402 S   0  0  0  0  0  0  0  0  0  0  0  0
    6.9403   10.7590   25.8411 C   0  0  0  0  0  0  0  0  0  0  0  0
    5.9382   10.3688   26.7497 C   0  0  0  0  0  0  0  0  0  0  0  0
    5.3140   11.2949   27.5796 C   0  0  0  0  0  0  0  0  0  0  0  0
    5.6880   12.6274   27.5116 C   0  0  0  0  0  0  0  0  0  0  0  0
    6.6634   13.0276   26.5977 C   0  0  0  0  0  0  0  0  0  0  0  0
    7.2845   12.1093   25.7225 C   0  0  0  0  0  0  0  0  0  0  0  0
    9.3858   15.4800   23.5200 C   0  0  0  0  0  0  0  0  0  0  0  0
  1  2  2  0
  2  3  1  0
  3  4  1  0
  4  5  1  0
  5  6  1  0
  6  7  1  1
  7  8  1  0
  8  9  1  0
  9 10  2  0
 11  9  1  6
 11 12  1  0
 12 13  1  0
 13 14  1  0
 14 15  1  0
 15 16  2  0
 16 17  1  0
 17 18  2  0
 18 19  1  0
 19 20  2  0
  8 21  1  0
  6  2  1  0
 20 11  1  0
  4 21  1  6
 20 15  1  0
M  END
>  <alias>  (7) 
None

>  <Experiment code>  (7) 
nan

>  <CrystalformSites upload name>  (7) 
nan

>  <inchikey>  (7) 
OWXSCDCPVZGTHY-DMDPSCGWSA-N

>  <Crystalforms upload name>  (7) 
nan

>  <Quatassemblies upload name>  (7) 
nan

>  <ConformerSites alias>  (7) 
nan

>  <ConformerSites short tag>  (7) 
nan

>  <Crystalforms short tag>  (7) 
nan

>  <Centroid res>  (7) 
nan

>  <Quatassemblies short tag>  (7) 
nan

>  <observation_longname>  (7) 
nan

>  <name>  (7) 
OWXSCDCPVZGTHY-DMDPSCGWSA-N

>  <CanonSites upload name>  (7) 
nan

>  <tags>  (7) 
[]

>  <energy_score>  (7) 
29.220471

>  <original SMILES>  (7) 
O=C1N[C@@H]2C[C@H]1CN(C(=O)[C@@H]1CCSc3ccccc31)C2

>  <ref_mols>  (7) 
A4386a

>  <Pose>  (7) 
nan

>  <distance_score>  (7) 
1.529699

>  <ConformerSites upload name>  (7) 
nan

>  <HIPPO Pose ID>  (7) 
207644

>  <Crystalforms alias>  (7) 
nan

>  <original ID>  (7) 
OWXSCDCPVZGTHY-DMDPSCGWSA-N

>  <CanonSites alias>  (7) 
nan

>  <CrystalformSites alias>  (7) 
nan

>  <ref_pdb>  (7) 
A4386a

>  <CanonSites short tag>  (7) 
nan

>  <Quatassemblies alias>  (7) 
nan

>  <HIPPO Compound ID>  (7) 
122661

>  <CrystalformSites short tag>  (7) 
nan

$$$$
FSXIUBBLTJPOEQ-QKVFXAPYSA-N
     RDKit          3D

 21 22  0  0  0  0  0  0  0  0999 V2000
    9.2426    9.3865   23.6190 C   0  0  0  0  0  0  0  0  0  0  0  0
    8.8315   11.1273   23.8195 S   0  0  0  0  0  3  0  0  0  0  0  0
   10.1467   11.9161   24.4475 O   0  0  0  0  0  1  0  0  0  0  0  0
    7.5505   11.1236   25.1113 C   0  0  0  0  0  0  0  0  0  0  0  0
    6.9442    9.9343   25.5424 C   0  0  0  0  0  0  0  0  0  0  0  0
    5.8991    9.9415   26.4719 C   0  0  0  0  0  0  0  0  0  0  0  0
    5.4418   11.1396   26.9963 C   0  0  0  0  0  0  0  0  0  0  0  0
    6.0334   12.3303   26.5931 C   0  0  0  0  0  0  0  0  0  0  0  0
    7.0894   12.3418   25.6585 C   0  0  0  0  0  0  0  0  0  0  0  0
    7.6875   13.6870   25.3137 C   0  0  0  0  0  0  0  0  0  0  0  0
    7.3615   14.2151   23.9139 C   0  0  0  0  0  0  0  0  0  0  0  0
    6.2268   14.3140   23.5322 O   0  0  0  0  0  0  0  0  0  0  0  0
    8.5871   14.6096   23.2952 N   0  0  0  0  0  0  0  0  0  0  0  0
    8.9479   16.0210   23.7079 C   0  0  0  0  0  0  0  0  0  0  0  0
   10.4644   16.1944   23.8122 C   0  0  0  0  0  0  0  0  0  0  0  0
   11.0124   16.3763   22.4197 C   0  0  0  0  0  0  0  0  0  0  0  0
   10.3440   15.3405   21.5291 C   0  0  2  0  0  0  0  0  0  0  0  0
   10.4330   15.7762   20.0560 C   0  0  0  0  0  0  0  0  0  0  0  0
   10.8084   14.6693   19.2207 N   0  0  0  0  0  0  0  0  0  0  0  0
   10.2165   16.9211   19.7824 O   0  0  0  0  0  0  0  0  0  0  0  0
    8.8621   15.1751   21.9146 C   0  0  0  0  0  0  0  0  0  0  0  0
  2  1  1  1
  2  3  1  0
  2  4  1  0
  4  5  2  0
  5  6  1  0
  6  7  2  0
  7  8  1  0
  8  9  2  0
  9 10  1  0
 10 11  1  0
 11 12  2  0
 11 13  1  0
 13 14  1  0
 14 15  1  0
 15 16  1  0
 16 17  1  0
 17 18  1  6
 18 19  1  0
 18 20  2  0
 17 21  1  0
  9  4  1  0
 21 13  1  0
M  CHG  2   2   1   3  -1
M  END
>  <alias>  (8) 
None

>  <Experiment code>  (8) 
nan

>  <CrystalformSites upload name>  (8) 
nan

>  <inchikey>  (8) 
FSXIUBBLTJPOEQ-QKVFXAPYSA-N

>  <Crystalforms upload name>  (8) 
nan

>  <Quatassemblies upload name>  (8) 
nan

>  <ConformerSites alias>  (8) 
nan

>  <ConformerSites short tag>  (8) 
nan

>  <Crystalforms short tag>  (8) 
nan

>  <Centroid res>  (8) 
nan

>  <Quatassemblies short tag>  (8) 
nan

>  <observation_longname>  (8) 
nan

>  <name>  (8) 
FSXIUBBLTJPOEQ-QKVFXAPYSA-N

>  <CanonSites upload name>  (8) 
nan

>  <tags>  (8) 
[]

>  <energy_score>  (8) 
-27.158874

>  <original SMILES>  (8) 
C[S@+]([O-])c1ccccc1CC(=O)N1CCC[C@H](C(N)=O)C1

>  <ref_mols>  (8) 
A4386a

>  <Pose>  (8) 
nan

>  <distance_score>  (8) 
0.742827

>  <ConformerSites upload name>  (8) 
nan

>  <HIPPO Pose ID>  (8) 
207706

>  <Crystalforms alias>  (8) 
nan

>  <original ID>  (8) 
FSXIUBBLTJPOEQ-QKVFXAPYSA-N

>  <CanonSites alias>  (8) 
nan

>  <CrystalformSites alias>  (8) 
nan

>  <ref_pdb>  (8) 
A4386a

>  <CanonSites short tag>  (8) 
nan

>  <Quatassemblies alias>  (8) 
nan

>  <HIPPO Compound ID>  (8) 
122686

>  <CrystalformSites short tag>  (8) 
nan

$$$$
FSXIUBBLTJPOEQ-GTJPDFRWSA-N
     RDKit          3D

 21 22  0  0  0  0  0  0  0  0999 V2000
    9.3453    9.2768   23.5952 C   0  0  0  0  0  0  0  0  0  0  0  0
    8.9720   11.0314   23.7092 S   0  0  0  0  0  3  0  0  0  0  0  0
   10.2917   11.8338   24.3096 O   0  0  0  0  0  1  0  0  0  0  0  0
    7.6953   11.1200   24.9941 C   0  0  0  0  0  0  0  0  0  0  0  0
    7.0510    9.9714   25.4780 C   0  0  0  0  0  0  0  0  0  0  0  0
    6.0142   10.0559   26.4116 C   0  0  0  0  0  0  0  0  0  0  0  0
    5.6048   11.2943   26.8824 C   0  0  0  0  0  0  0  0  0  0  0  0
    6.2366   12.4461   26.4238 C   0  0  0  0  0  0  0  0  0  0  0  0
    7.2869   12.3787   25.4860 C   0  0  0  0  0  0  0  0  0  0  0  0
    7.9254   13.6828   25.0512 C   0  0  0  0  0  0  0  0  0  0  0  0
    7.5199   14.1722   23.6561 C   0  0  0  0  0  0  0  0  0  0  0  0
    6.3605   14.2051   23.3401 O   0  0  0  0  0  0  0  0  0  0  0  0
    8.6883   14.6196   22.9578 N   0  0  0  0  0  0  0  0  0  0  0  0
    8.9944   16.0436   23.3247 C   0  0  0  0  0  0  0  0  0  0  0  0
   10.5235   16.2374   23.4121 C   0  0  0  0  0  0  0  0  0  0  0  0
   11.1802   15.8588   22.0938 C   0  0  0  0  0  0  0  0  0  0  0  0
   10.0815   15.9957   21.0652 C   0  0  1  0  0  0  0  0  0  0  0  0
   10.5101   15.8372   19.5921 C   0  0  0  0  0  0  0  0  0  0  0  0
   11.0974   14.5635   19.2910 N   0  0  0  0  0  0  0  0  0  0  0  0
   10.3723   16.8139   18.9108 O   0  0  0  0  0  0  0  0  0  0  0  0
    8.8527   15.1802   21.5352 C   0  0  0  0  0  0  0  0  0  0  0  0
  2  1  1  1
  2  3  1  0
  2  4  1  0
  4  5  2  0
  5  6  1  0
  6  7  2  0
  7  8  1  0
  8  9  2  0
  9 10  1  0
 10 11  1  0
 11 12  2  0
 11 13  1  0
 13 14  1  0
 14 15  1  0
 15 16  1  0
 16 17  1  0
 17 18  1  6
 18 19  1  0
 18 20  2  0
 17 21  1  0
  9  4  1  0
 21 13  1  0
M  CHG  2   2   1   3  -1
M  END
>  <alias>  (9) 
None

>  <Experiment code>  (9) 
nan

>  <CrystalformSites upload name>  (9) 
nan

>  <inchikey>  (9) 
FSXIUBBLTJPOEQ-GTJPDFRWSA-N

>  <Crystalforms upload name>  (9) 
nan

>  <Quatassemblies upload name>  (9) 
nan

>  <ConformerSites alias>  (9) 
nan

>  <ConformerSites short tag>  (9) 
nan

>  <Crystalforms short tag>  (9) 
nan

>  <Centroid res>  (9) 
nan

>  <Quatassemblies short tag>  (9) 
nan

>  <observation_longname>  (9) 
nan

>  <name>  (9) 
FSXIUBBLTJPOEQ-GTJPDFRWSA-N

>  <CanonSites upload name>  (9) 
nan

>  <tags>  (9) 
[]

>  <energy_score>  (9) 
191.555667

>  <original SMILES>  (9) 
C[S@+]([O-])c1ccccc1CC(=O)N1CCC[C@@H](C(N)=O)C1

>  <ref_mols>  (9) 
A4386a

>  <Pose>  (9) 
nan

>  <distance_score>  (9) 
0.701765

>  <ConformerSites upload name>  (9) 
nan

>  <HIPPO Pose ID>  (9) 
207707

>  <Crystalforms alias>  (9) 
nan

>  <original ID>  (9) 
FSXIUBBLTJPOEQ-GTJPDFRWSA-N

>  <CanonSites alias>  (9) 
nan

>  <CrystalformSites alias>  (9) 
nan

>  <ref_pdb>  (9) 
A4386a

>  <CanonSites short tag>  (9) 
nan

>  <Quatassemblies alias>  (9) 
nan

>  <HIPPO Compound ID>  (9) 
122686

>  <CrystalformSites short tag>  (9) 
nan

$$$$
FSXIUBBLTJPOEQ-LAJNKCICSA-N
     RDKit          3D

 21 22  0  0  0  0  0  0  0  0999 V2000
    9.0185    8.9005   23.6277 C   0  0  0  0  0  0  0  0  0  0  0  0
    9.1595   10.5617   24.2701 S   0  0  0  0  0  3  0  0  0  0  0  0
    9.1960   11.6202   23.0180 O   0  0  0  0  0  1  0  0  0  0  0  0
    7.6318   10.8452   25.1973 C   0  0  0  0  0  0  0  0  0  0  0  0
    6.8847    9.7618   25.6749 C   0  0  0  0  0  0  0  0  0  0  0  0
    5.7502    9.9399   26.4706 C   0  0  0  0  0  0  0  0  0  0  0  0
    5.3341   11.2190   26.8016 C   0  0  0  0  0  0  0  0  0  0  0  0
    6.0588   12.3130   26.3425 C   0  0  0  0  0  0  0  0  0  0  0  0
    7.2204   12.1462   25.5595 C   0  0  0  0  0  0  0  0  0  0  0  0
    7.9716   13.4031   25.1749 C   0  0  0  0  0  0  0  0  0  0  0  0
    7.5501   14.0315   23.8421 C   0  0  0  0  0  0  0  0  0  0  0  0
    6.3997   14.0845   23.5008 O   0  0  0  0  0  0  0  0  0  0  0  0
    8.7301   14.5372   23.2136 N   0  0  0  0  0  0  0  0  0  0  0  0
    9.0208   15.9407   23.7036 C   0  0  0  0  0  0  0  0  0  0  0  0
   10.5237   16.2293   23.7445 C   0  0  0  0  0  0  0  0  0  0  0  0
   10.9978   16.4958   22.3361 C   0  0  0  0  0  0  0  0  0  0  0  0
   10.3893   15.4183   21.4562 C   0  0  2  0  0  0  0  0  0  0  0  0
   10.4563   15.8074   19.9719 C   0  0  0  0  0  0  0  0  0  0  0  0
   10.7029   14.6475   19.1613 N   0  0  0  0  0  0  0  0  0  0  0  0
   10.3329   16.9574   19.6687 O   0  0  0  0  0  0  0  0  0  0  0  0
    8.9249   15.1996   21.8673 C   0  0  0  0  0  0  0  0  0  0  0  0
  2  1  1  6
  2  3  1  0
  2  4  1  0
  4  5  2  0
  5  6  1  0
  6  7  2  0
  7  8  1  0
  8  9  2  0
  9 10  1  0
 10 11  1  0
 11 12  2  0
 11 13  1  0
 13 14  1  0
 14 15  1  0
 15 16  1  0
 16 17  1  0
 17 18  1  6
 18 19  1  0
 18 20  2  0
 17 21  1  0
  9  4  1  0
 21 13  1  0
M  CHG  2   2   1   3  -1
M  END
>  <alias>  (10) 
None

>  <Experiment code>  (10) 
nan

>  <CrystalformSites upload name>  (10) 
nan

>  <inchikey>  (10) 
FSXIUBBLTJPOEQ-LAJNKCICSA-N

>  <Crystalforms upload name>  (10) 
nan

>  <Quatassemblies upload name>  (10) 
nan

>  <ConformerSites alias>  (10) 
nan

>  <ConformerSites short tag>  (10) 
nan

>  <Crystalforms short tag>  (10) 
nan

>  <Centroid res>  (10) 
nan

>  <Quatassemblies short tag>  (10) 
nan

>  <observation_longname>  (10) 
nan

>  <name>  (10) 
FSXIUBBLTJPOEQ-LAJNKCICSA-N

>  <CanonSites upload name>  (10) 
nan

>  <tags>  (10) 
[]

>  <energy_score>  (10) 
163.645134

>  <original SMILES>  (10) 
C[S@@+]([O-])c1ccccc1CC(=O)N1CCC[C@H](C(N)=O)C1

>  <ref_mols>  (10) 
A4386a

>  <Pose>  (10) 
nan

>  <distance_score>  (10) 
0.647024

>  <ConformerSites upload name>  (10) 
nan

>  <HIPPO Pose ID>  (10) 
207708

>  <Crystalforms alias>  (10) 
nan

>  <original ID>  (10) 
FSXIUBBLTJPOEQ-LAJNKCICSA-N

>  <CanonSites alias>  (10) 
nan

>  <CrystalformSites alias>  (10) 
nan

>  <ref_pdb>  (10) 
A4386a

>  <CanonSites short tag>  (10) 
nan

>  <Quatassemblies alias>  (10) 
nan

>  <HIPPO Compound ID>  (10) 
122686

>  <CrystalformSites short tag>  (10) 
nan

$$$$
YQNRLOFSQIVVPG-VHSXEESVSA-N
     RDKit          3D

 21 23  0  0  0  0  0  0  0  0999 V2000
    9.1941    9.0457   23.5475 C   0  0  0  0  0  0  0  0  0  0  0  0
    9.1181   10.8092   23.9535 S   0  0  0  0  0  0  0  0  0  0  0  0
    7.7159   10.9843   25.0694 C   0  0  0  0  0  0  0  0  0  0  0  0
    7.0379    9.8629   25.5635 C   0  0  0  0  0  0  0  0  0  0  0  0
    5.9462    9.9904   26.4204 C   0  0  0  0  0  0  0  0  0  0  0  0
    5.5168   11.2511   26.8045 C   0  0  0  0  0  0  0  0  0  0  0  0
    6.1764   12.3886   26.3321 C   0  0  0  0  0  0  0  0  0  0  0  0
    5.4779   14.0542   26.9339 Br  0  0  0  0  0  0  0  0  0  0  0  0
    7.2897   12.2795   25.4705 C   0  0  0  0  0  0  0  0  0  0  0  0
    8.0014   13.5158   24.9469 C   0  0  0  0  0  0  0  0  0  0  0  0
    7.7015   13.8092   23.4726 C   0  0  0  0  0  0  0  0  0  0  0  0
    6.6269   13.5690   22.9917 O   0  0  0  0  0  0  0  0  0  0  0  0
    8.8787   14.3615   22.8833 N   0  0  0  0  0  0  0  0  0  0  0  0
    8.8756   15.8888   23.0277 C   0  0  0  0  0  0  0  0  0  0  0  0
   10.2442   16.6185   22.8225 C   0  0  1  0  0  0  0  0  0  0  0  0
   11.2842   15.5968   22.4123 C   0  0  0  0  0  0  0  0  0  0  0  0
   10.5965   15.2233   21.1115 C   0  0  1  0  0  0  0  0  0  0  0  0
    9.1875   14.7136   21.4536 C   0  0  0  0  0  0  0  0  0  0  0  0
   10.3295   16.5832   20.5191 C   0  0  0  0  0  0  0  0  0  0  0  0
   10.1578   16.8602   19.3506 O   0  0  0  0  0  0  0  0  0  0  0  0
   10.1815   17.4153   21.6219 N   0  0  0  0  0  0  0  0  0  0  0  0
  1  2  1  0
  2  3  1  0
  3  4  2  0
  4  5  1  0
  5  6  2  0
  6  7  1  0
  7  8  1  0
  7  9  2  0
  9 10  1  0
 10 11  1  0
 11 12  2  0
 11 13  1  0
 13 14  1  0
 15 14  1  6
 15 16  1  0
 16 17  1  0
 17 18  1  1
 17 19  1  0
 19 20  2  0
 19 21  1  0
  9  3  1  0
 18 13  1  0
 21 15  1  0
M  END
>  <alias>  (11) 
None

>  <Experiment code>  (11) 
nan

>  <CrystalformSites upload name>  (11) 
nan

>  <inchikey>  (11) 
YQNRLOFSQIVVPG-VHSXEESVSA-N

>  <Crystalforms upload name>  (11) 
nan

>  <Quatassemblies upload name>  (11) 
nan

>  <ConformerSites alias>  (11) 
nan

>  <ConformerSites short tag>  (11) 
nan

>  <Crystalforms short tag>  (11) 
nan

>  <Centroid res>  (11) 
nan

>  <Quatassemblies short tag>  (11) 
nan

>  <observation_longname>  (11) 
nan

>  <name>  (11) 
YQNRLOFSQIVVPG-VHSXEESVSA-N

>  <CanonSites upload name>  (11) 
nan

>  <tags>  (11) 
[]

>  <energy_score>  (11) 
-24.767501

>  <original SMILES>  (11) 
CSc1cccc(Br)c1CC(=O)N1C[C@H]2C[C@@H](C1)C(=O)N2

>  <ref_mols>  (11) 
A4386a

>  <Pose>  (11) 
nan

>  <distance_score>  (11) 
1.094764

>  <ConformerSites upload name>  (11) 
nan

>  <HIPPO Pose ID>  (11) 
207757

>  <Crystalforms alias>  (11) 
nan

>  <original ID>  (11) 
YQNRLOFSQIVVPG-VHSXEESVSA-N

>  <CanonSites alias>  (11) 
nan

>  <CrystalformSites alias>  (11) 
nan

>  <ref_pdb>  (11) 
A4386a

>  <CanonSites short tag>  (11) 
nan

>  <Quatassemblies alias>  (11) 
nan

>  <HIPPO Compound ID>  (11) 
122702

>  <CrystalformSites short tag>  (11) 
nan

$$$$
YQNRLOFSQIVVPG-VHSXEESVSA-N
     RDKit          3D

 21 23  0  0  0  0  0  0  0  0999 V2000
    9.0460    9.5597   23.7206 C   0  0  0  0  0  0  0  0  0  0  0  0
    8.9954   11.2797   24.3066 S   0  0  0  0  0  0  0  0  0  0  0  0
    7.4392   11.4037   25.2150 C   0  0  0  0  0  0  0  0  0  0  0  0
    6.9269   10.2442   25.8250 C   0  0  0  0  0  0  0  0  0  0  0  0
    5.8032   10.2874   26.6440 C   0  0  0  0  0  0  0  0  0  0  0  0
    5.1876   11.5046   26.8901 C   0  0  0  0  0  0  0  0  0  0  0  0
    5.6596   12.6732   26.2781 C   0  0  0  0  0  0  0  0  0  0  0  0
    4.7242   14.2679   26.7424 Br  0  0  0  0  0  0  0  0  0  0  0  0
    6.7658   12.6507   25.3969 C   0  0  0  0  0  0  0  0  0  0  0  0
    7.1954   13.9390   24.6790 C   0  0  0  0  0  0  0  0  0  0  0  0
    7.5251   13.7319   23.2003 C   0  0  0  0  0  0  0  0  0  0  0  0
    6.8680   12.9726   22.5352 O   0  0  0  0  0  0  0  0  0  0  0  0
    8.7041   14.4714   22.8735 N   0  0  0  0  0  0  0  0  0  0  0  0
    8.3153   15.8744   22.3129 C   0  0  0  0  0  0  0  0  0  0  0  0
    9.3744   16.9693   21.9589 C   0  0  1  0  0  0  0  0  0  0  0  0
   10.6872   16.4852   22.5249 C   0  0  0  0  0  0  0  0  0  0  0  0
   10.8180   15.3145   21.5634 C   0  0  1  0  0  0  0  0  0  0  0  0
    9.5501   14.4521   21.6575 C   0  0  0  0  0  0  0  0  0  0  0  0
   10.6373   16.0401   20.2538 C   0  0  0  0  0  0  0  0  0  0  0  0
   11.1643   15.8250   19.1839 O   0  0  0  0  0  0  0  0  0  0  0  0
    9.6753   16.9954   20.5406 N   0  0  0  0  0  0  0  0  0  0  0  0
  1  2  1  0
  2  3  1  0
  3  4  2  0
  4  5  1  0
  5  6  2  0
  6  7  1  0
  7  8  1  0
  7  9  2  0
  9 10  1  0
 10 11  1  0
 11 12  2  0
 11 13  1  0
 13 14  1  0
 15 14  1  6
 15 16  1  0
 16 17  1  0
 17 18  1  1
 17 19  1  0
 19 20  2  0
 19 21  1  0
  9  3  1  0
 18 13  1  0
 21 15  1  0
M  END
>  <alias>  (12) 
None

>  <Experiment code>  (12) 
nan

>  <CrystalformSites upload name>  (12) 
nan

>  <inchikey>  (12) 
YQNRLOFSQIVVPG-VHSXEESVSA-N

>  <Crystalforms upload name>  (12) 
nan

>  <Quatassemblies upload name>  (12) 
nan

>  <ConformerSites alias>  (12) 
nan

>  <ConformerSites short tag>  (12) 
nan

>  <Crystalforms short tag>  (12) 
nan

>  <Centroid res>  (12) 
nan

>  <Quatassemblies short tag>  (12) 
nan

>  <observation_longname>  (12) 
nan

>  <name>  (12) 
YQNRLOFSQIVVPG-VHSXEESVSA-N

>  <CanonSites upload name>  (12) 
nan

>  <tags>  (12) 
[]

>  <energy_score>  (12) 
55.493262

>  <original SMILES>  (12) 
CSc1cccc(Br)c1CC(=O)N1C[C@H]2C[C@@H](C1)C(=O)N2

>  <ref_mols>  (12) 
A4386a

>  <Pose>  (12) 
nan

>  <distance_score>  (12) 
1.371082

>  <ConformerSites upload name>  (12) 
nan

>  <HIPPO Pose ID>  (12) 
207758

>  <Crystalforms alias>  (12) 
nan

>  <original ID>  (12) 
YQNRLOFSQIVVPG-VHSXEESVSA-N

>  <CanonSites alias>  (12) 
nan

>  <CrystalformSites alias>  (12) 
nan

>  <ref_pdb>  (12) 
A4386a

>  <CanonSites short tag>  (12) 
nan

>  <Quatassemblies alias>  (12) 
nan

>  <HIPPO Compound ID>  (12) 
122702

>  <CrystalformSites short tag>  (12) 
nan

$$$$
SRQVRMUCHBMAPS-JTQLQIEISA-N
     RDKit          3D

 21 22  0  0  0  0  0  0  0  0999 V2000
    9.1953    9.0752   23.5555 C   0  0  0  0  0  0  0  0  0  0  0  0
    9.0385   10.8398   23.9424 S   0  0  0  0  0  0  0  0  0  0  0  0
    7.6625   10.9529   25.1005 C   0  0  0  0  0  0  0  0  0  0  0  0
    6.9844    9.8109   25.5412 C   0  0  0  0  0  0  0  0  0  0  0  0
    5.8932    9.8970   26.4054 C   0  0  0  0  0  0  0  0  0  0  0  0
    5.4618   11.1355   26.8513 C   0  0  0  0  0  0  0  0  0  0  0  0
    6.1276   12.2913   26.4426 C   0  0  0  0  0  0  0  0  0  0  0  0
    5.4380   13.9277   27.1297 Br  0  0  0  0  0  0  0  0  0  0  0  0
    7.2466   12.2209   25.5831 C   0  0  0  0  0  0  0  0  0  0  0  0
    7.9887   13.4759   25.1751 C   0  0  0  0  0  0  0  0  0  0  0  0
    7.5956   14.0156   23.7960 C   0  0  0  0  0  0  0  0  0  0  0  0
    6.4532   14.0355   23.4269 O   0  0  0  0  0  0  0  0  0  0  0  0
    8.7810   14.5223   23.1773 N   0  0  0  0  0  0  0  0  0  0  0  0
    9.0350   15.9489   23.6267 C   0  0  0  0  0  0  0  0  0  0  0  0
   10.5317   16.2579   23.6934 C   0  0  0  0  0  0  0  0  0  0  0  0
   11.0198   16.5207   22.2903 C   0  0  0  0  0  0  0  0  0  0  0  0
   10.4535   15.4170   21.4159 C   0  0  2  0  0  0  0  0  0  0  0  0
   10.5062   15.8002   19.9288 C   0  0  0  0  0  0  0  0  0  0  0  0
   10.7401   14.6341   19.1252 N   0  0  0  0  0  0  0  0  0  0  0  0
   10.3792   16.9473   19.6178 O   0  0  0  0  0  0  0  0  0  0  0  0
    8.9947   15.1428   21.8142 C   0  0  0  0  0  0  0  0  0  0  0  0
  1  2  1  0
  2  3  1  0
  3  4  2  0
  4  5  1  0
  5  6  2  0
  6  7  1  0
  7  8  1  0
  7  9  2  0
  9 10  1  0
 10 11  1  0
 11 12  2  0
 11 13  1  0
 13 14  1  0
 14 15  1  0
 15 16  1  0
 16 17  1  0
 17 18  1  6
 18 19  1  0
 18 20  2  0
 17 21  1  0
  9  3  1  0
 21 13  1  0
M  END
>  <alias>  (13) 
None

>  <Experiment code>  (13) 
nan

>  <CrystalformSites upload name>  (13) 
nan

>  <inchikey>  (13) 
SRQVRMUCHBMAPS-JTQLQIEISA-N

>  <Crystalforms upload name>  (13) 
nan

>  <Quatassemblies upload name>  (13) 
nan

>  <ConformerSites alias>  (13) 
nan

>  <ConformerSites short tag>  (13) 
nan

>  <Crystalforms short tag>  (13) 
nan

>  <Centroid res>  (13) 
nan

>  <Quatassemblies short tag>  (13) 
nan

>  <observation_longname>  (13) 
nan

>  <name>  (13) 
SRQVRMUCHBMAPS-JTQLQIEISA-N

>  <CanonSites upload name>  (13) 
nan

>  <tags>  (13) 
[]

>  <energy_score>  (13) 
192.241585

>  <original SMILES>  (13) 
CSc1cccc(Br)c1CC(=O)N1CCC[C@H](C(N)=O)C1

>  <ref_mols>  (13) 
A4386a

>  <Pose>  (13) 
nan

>  <distance_score>  (13) 
0.612983

>  <ConformerSites upload name>  (13) 
nan

>  <HIPPO Pose ID>  (13) 
207765

>  <Crystalforms alias>  (13) 
nan

>  <original ID>  (13) 
SRQVRMUCHBMAPS-JTQLQIEISA-N

>  <CanonSites alias>  (13) 
nan

>  <CrystalformSites alias>  (13) 
nan

>  <ref_pdb>  (13) 
A4386a

>  <CanonSites short tag>  (13) 
nan

>  <Quatassemblies alias>  (13) 
nan

>  <HIPPO Compound ID>  (13) 
122705

>  <CrystalformSites short tag>  (13) 
nan

$$$$
SRQVRMUCHBMAPS-SNVBAGLBSA-N
     RDKit          3D

 21 22  0  0  0  0  0  0  0  0999 V2000
    9.2399    8.8850   23.5340 C   0  0  0  0  0  0  0  0  0  0  0  0
    9.1705   10.6713   23.7914 S   0  0  0  0  0  0  0  0  0  0  0  0
    7.8401   10.9281   24.9713 C   0  0  0  0  0  0  0  0  0  0  0  0
    7.0918    9.8587   25.4789 C   0  0  0  0  0  0  0  0  0  0  0  0
    6.0342   10.0618   26.3637 C   0  0  0  0  0  0  0  0  0  0  0  0
    5.7102   11.3499   26.7610 C   0  0  0  0  0  0  0  0  0  0  0  0
    6.4494   12.4347   26.2821 C   0  0  0  0  0  0  0  0  0  0  0  0
    5.9100   14.1493   26.9101 Br  0  0  0  0  0  0  0  0  0  0  0  0
    7.5337   12.2446   25.3965 C   0  0  0  0  0  0  0  0  0  0  0  0
    8.3285   13.4264   24.8686 C   0  0  0  0  0  0  0  0  0  0  0  0
    7.8096   13.9602   23.5260 C   0  0  0  0  0  0  0  0  0  0  0  0
    6.6409   13.9100   23.2522 O   0  0  0  0  0  0  0  0  0  0  0  0
    8.9060   14.5514   22.8195 N   0  0  0  0  0  0  0  0  0  0  0  0
    9.1039   15.9774   23.2681 C   0  0  0  0  0  0  0  0  0  0  0  0
   10.6117   16.2820   23.3302 C   0  0  0  0  0  0  0  0  0  0  0  0
   11.2719   15.9667   21.9974 C   0  0  0  0  0  0  0  0  0  0  0  0
   10.1655   16.0491   20.9681 C   0  0  1  0  0  0  0  0  0  0  0  0
   10.6122   15.8391   19.5074 C   0  0  0  0  0  0  0  0  0  0  0  0
   11.1714   14.5400   19.2576 N   0  0  0  0  0  0  0  0  0  0  0  0
   10.5117   16.7955   18.7930 O   0  0  0  0  0  0  0  0  0  0  0  0
    8.9646   15.2055   21.4438 C   0  0  0  0  0  0  0  0  0  0  0  0
  1  2  1  0
  2  3  1  0
  3  4  2  0
  4  5  1  0
  5  6  2  0
  6  7  1  0
  7  8  1  0
  7  9  2  0
  9 10  1  0
 10 11  1  0
 11 12  2  0
 11 13  1  0
 13 14  1  0
 14 15  1  0
 15 16  1  0
 16 17  1  0
 17 18  1  6
 18 19  1  0
 18 20  2  0
 17 21  1  0
  9  3  1  0
 21 13  1  0
M  END
>  <alias>  (14) 
None

>  <Experiment code>  (14) 
nan

>  <CrystalformSites upload name>  (14) 
nan

>  <inchikey>  (14) 
SRQVRMUCHBMAPS-SNVBAGLBSA-N

>  <Crystalforms upload name>  (14) 
nan

>  <Quatassemblies upload name>  (14) 
nan

>  <ConformerSites alias>  (14) 
nan

>  <ConformerSites short tag>  (14) 
nan

>  <Crystalforms short tag>  (14) 
nan

>  <Centroid res>  (14) 
nan

>  <Quatassemblies short tag>  (14) 
nan

>  <observation_longname>  (14) 
nan

>  <name>  (14) 
SRQVRMUCHBMAPS-SNVBAGLBSA-N

>  <CanonSites upload name>  (14) 
nan

>  <tags>  (14) 
[]

>  <energy_score>  (14) 
11.169079

>  <original SMILES>  (14) 
CSc1cccc(Br)c1CC(=O)N1CCC[C@@H](C(N)=O)C1

>  <ref_mols>  (14) 
A4386a

>  <Pose>  (14) 
nan

>  <distance_score>  (14) 
0.626405

>  <ConformerSites upload name>  (14) 
nan

>  <HIPPO Pose ID>  (14) 
207766

>  <Crystalforms alias>  (14) 
nan

>  <original ID>  (14) 
SRQVRMUCHBMAPS-SNVBAGLBSA-N

>  <CanonSites alias>  (14) 
nan

>  <CrystalformSites alias>  (14) 
nan

>  <ref_pdb>  (14) 
A4386a

>  <CanonSites short tag>  (14) 
nan

>  <Quatassemblies alias>  (14) 
nan

>  <HIPPO Compound ID>  (14) 
122705

>  <CrystalformSites short tag>  (14) 
nan

$$$$
ABGYSGOHXUTZSE-SMDDFHAHSA-N
     RDKit          3D

 21 23  0  0  0  0  0  0  0  0999 V2000
    8.9874    8.6945   23.6788 C   0  0  0  0  0  0  0  0  0  0  0  0
    9.2961   10.3723   24.1735 S   0  0  0  0  0  3  0  0  0  0  0  0
    9.3713   11.3076   22.8283 O   0  0  0  0  0  1  0  0  0  0  0  0
    7.8243   10.9000   25.0870 C   0  0  0  0  0  0  0  0  0  0  0  0
    6.9373    9.9458   25.6076 C   0  0  0  0  0  0  0  0  0  0  0  0
    5.8413   10.3161   26.3849 C   0  0  0  0  0  0  0  0  0  0  0  0
    5.6128   11.6574   26.6508 C   0  0  0  0  0  0  0  0  0  0  0  0
    6.4888   12.6239   26.1559 C   0  0  0  0  0  0  0  0  0  0  0  0
    7.6067   12.2746   25.3732 C   0  0  0  0  0  0  0  0  0  0  0  0
    8.6320   13.3451   25.0319 C   0  0  0  0  0  0  0  0  0  0  0  0
    8.1767   14.7222   24.5369 C   0  0  0  0  0  0  0  0  0  0  0  0
    7.4045   15.3768   25.1877 O   0  0  0  0  0  0  0  0  0  0  0  0
    8.8841   15.0421   23.3270 N   0  0  0  0  0  0  0  0  0  0  0  0
   10.2233   15.6447   23.6583 C   0  0  0  0  0  0  0  0  0  0  0  0
   11.3220   15.5895   22.5700 C   0  0  2  0  0  0  0  0  0  0  0  0
   11.1723   16.9237   21.8877 C   0  0  0  0  0  0  0  0  0  0  0  0
    9.8188   16.6223   21.2715 C   0  0  2  0  0  0  0  0  0  0  0  0
    8.7968   16.2865   22.4030 C   0  0  0  0  0  0  0  0  0  0  0  0
   10.2222   15.3701   20.5636 C   0  0  0  0  0  0  0  0  0  0  0  0
    9.9947   15.0818   19.4093 O   0  0  0  0  0  0  0  0  0  0  0  0
   11.0152   14.6930   21.4811 N   0  0  0  0  0  0  0  0  0  0  0  0
  2  1  1  6
  2  3  1  0
  2  4  1  0
  4  5  2  0
  5  6  1  0
  6  7  2  0
  7  8  1  0
  8  9  2  0
  9 10  1  0
 10 11  1  0
 11 12  2  0
 11 13  1  0
 13 14  1  0
 15 14  1  1
 15 16  1  0
 16 17  1  0
 17 18  1  1
 17 19  1  0
 19 20  2  0
 19 21  1  0
  9  4  1  0
 18 13  1  0
 21 15  1  0
M  CHG  2   2   1   3  -1
M  END
>  <alias>  (15) 
None

>  <Experiment code>  (15) 
nan

>  <CrystalformSites upload name>  (15) 
nan

>  <inchikey>  (15) 
ABGYSGOHXUTZSE-SMDDFHAHSA-N

>  <Crystalforms upload name>  (15) 
nan

>  <Quatassemblies upload name>  (15) 
nan

>  <ConformerSites alias>  (15) 
nan

>  <ConformerSites short tag>  (15) 
nan

>  <Crystalforms short tag>  (15) 
nan

>  <Centroid res>  (15) 
nan

>  <Quatassemblies short tag>  (15) 
nan

>  <observation_longname>  (15) 
nan

>  <name>  (15) 
ABGYSGOHXUTZSE-SMDDFHAHSA-N

>  <CanonSites upload name>  (15) 
nan

>  <tags>  (15) 
[]

>  <energy_score>  (15) 
12.917181

>  <original SMILES>  (15) 
C[S@@+]([O-])c1ccccc1CC(=O)N1C[C@@H]2C[C@H](C1)C(=O)N2

>  <ref_mols>  (15) 
A4386a

>  <Pose>  (15) 
nan

>  <distance_score>  (15) 
1.253174

>  <ConformerSites upload name>  (15) 
nan

>  <HIPPO Pose ID>  (15) 
207776

>  <Crystalforms alias>  (15) 
nan

>  <original ID>  (15) 
ABGYSGOHXUTZSE-SMDDFHAHSA-N

>  <CanonSites alias>  (15) 
nan

>  <CrystalformSites alias>  (15) 
nan

>  <ref_pdb>  (15) 
A4386a

>  <CanonSites short tag>  (15) 
nan

>  <Quatassemblies alias>  (15) 
nan

>  <HIPPO Compound ID>  (15) 
122711

>  <CrystalformSites short tag>  (15) 
nan

$$$$
ABGYSGOHXUTZSE-DCVWQXJKSA-N
     RDKit          3D

 21 23  0  0  0  0  0  0  0  0999 V2000
    9.2203    9.5160   23.6957 C   0  0  0  0  0  0  0  0  0  0  0  0
    8.7984   11.2554   23.8927 S   0  0  0  0  0  3  0  0  0  0  0  0
   10.1086   12.0498   24.5264 O   0  0  0  0  0  1  0  0  0  0  0  0
    7.5198   11.2418   25.1885 C   0  0  0  0  0  0  0  0  0  0  0  0
    6.9208   10.0444   25.6131 C   0  0  0  0  0  0  0  0  0  0  0  0
    5.8845   10.0386   26.5514 C   0  0  0  0  0  0  0  0  0  0  0  0
    5.4282   11.2318   27.0893 C   0  0  0  0  0  0  0  0  0  0  0  0
    6.0094   12.4305   26.6896 C   0  0  0  0  0  0  0  0  0  0  0  0
    7.0567   12.4572   25.7457 C   0  0  0  0  0  0  0  0  0  0  0  0
    7.6148   13.8172   25.3719 C   0  0  0  0  0  0  0  0  0  0  0  0
    7.1767   14.3106   23.9915 C   0  0  0  0  0  0  0  0  0  0  0  0
    6.0114   14.4242   23.7218 O   0  0  0  0  0  0  0  0  0  0  0  0
    8.3402   14.5860   23.2125 N   0  0  0  0  0  0  0  0  0  0  0  0
    8.7986   16.0307   23.4423 C   0  0  0  0  0  0  0  0  0  0  0  0
   10.2743   16.3756   23.0565 C   0  0  1  0  0  0  0  0  0  0  0  0
   10.8854   15.1577   22.3930 C   0  0  0  0  0  0  0  0  0  0  0  0
    9.9211   15.1534   21.2155 C   0  0  1  0  0  0  0  0  0  0  0  0
    8.4837   15.0002   21.7636 C   0  0  0  0  0  0  0  0  0  0  0  0
   10.0262   16.5926   20.7768 C   0  0  0  0  0  0  0  0  0  0  0  0
    9.8403   17.0387   19.6644 O   0  0  0  0  0  0  0  0  0  0  0  0
   10.2815   17.2978   21.9455 N   0  0  0  0  0  0  0  0  0  0  0  0
  2  1  1  1
  2  3  1  0
  2  4  1  0
  4  5  2  0
  5  6  1  0
  6  7  2  0
  7  8  1  0
  8  9  2  0
  9 10  1  0
 10 11  1  0
 11 12  2  0
 11 13  1  0
 13 14  1  0
 15 14  1  6
 15 16  1  0
 16 17  1  0
 17 18  1  1
 17 19  1  0
 19 20  2  0
 19 21  1  0
  9  4  1  0
 18 13  1  0
 21 15  1  0
M  CHG  2   2   1   3  -1
M  END
>  <alias>  (16) 
None

>  <Experiment code>  (16) 
nan

>  <CrystalformSites upload name>  (16) 
nan

>  <inchikey>  (16) 
ABGYSGOHXUTZSE-DCVWQXJKSA-N

>  <Crystalforms upload name>  (16) 
nan

>  <Quatassemblies upload name>  (16) 
nan

>  <ConformerSites alias>  (16) 
nan

>  <ConformerSites short tag>  (16) 
nan

>  <Crystalforms short tag>  (16) 
nan

>  <Centroid res>  (16) 
nan

>  <Quatassemblies short tag>  (16) 
nan

>  <observation_longname>  (16) 
nan

>  <name>  (16) 
ABGYSGOHXUTZSE-DCVWQXJKSA-N

>  <CanonSites upload name>  (16) 
nan

>  <tags>  (16) 
[]

>  <energy_score>  (16) 
16.277108

>  <original SMILES>  (16) 
C[S@+]([O-])c1ccccc1CC(=O)N1C[C@H]2C[C@@H](C1)C(=O)N2

>  <ref_mols>  (16) 
A4386a

>  <Pose>  (16) 
nan

>  <distance_score>  (16) 
1.271412

>  <ConformerSites upload name>  (16) 
nan

>  <HIPPO Pose ID>  (16) 
207777

>  <Crystalforms alias>  (16) 
nan

>  <original ID>  (16) 
ABGYSGOHXUTZSE-DCVWQXJKSA-N

>  <CanonSites alias>  (16) 
nan

>  <CrystalformSites alias>  (16) 
nan

>  <ref_pdb>  (16) 
A4386a

>  <CanonSites short tag>  (16) 
nan

>  <Quatassemblies alias>  (16) 
nan

>  <HIPPO Compound ID>  (16) 
122711

>  <CrystalformSites short tag>  (16) 
nan

$$$$
ABGYSGOHXUTZSE-QLMNROTDSA-N
     RDKit          3D

 21 23  0  0  0  0  0  0  0  0999 V2000
    8.9878    8.9911   23.7275 C   0  0  0  0  0  0  0  0  0  0  0  0
    9.0851   10.6710   24.3354 S   0  0  0  0  0  3  0  0  0  0  0  0
    9.0411   11.6951   23.0571 O   0  0  0  0  0  1  0  0  0  0  0  0
    7.5678   10.9286   25.2891 C   0  0  0  0  0  0  0  0  0  0  0  0
    6.8259    9.8304   25.7443 C   0  0  0  0  0  0  0  0  0  0  0  0
    5.6969    9.9865   26.5517 C   0  0  0  0  0  0  0  0  0  0  0  0
    5.2802   11.2565   26.9161 C   0  0  0  0  0  0  0  0  0  0  0  0
    5.9983   12.3645   26.4784 C   0  0  0  0  0  0  0  0  0  0  0  0
    7.1542   12.2234   25.6814 C   0  0  0  0  0  0  0  0  0  0  0  0
    7.8784   13.5035   25.3022 C   0  0  0  0  0  0  0  0  0  0  0  0
    7.3236   14.1933   24.0509 C   0  0  0  0  0  0  0  0  0  0  0  0
    6.1433   14.3627   23.9025 O   0  0  0  0  0  0  0  0  0  0  0  0
    8.4206   14.5112   23.1971 N   0  0  0  0  0  0  0  0  0  0  0  0
    8.9476   15.9132   23.5161 C   0  0  0  0  0  0  0  0  0  0  0  0
   10.3938   16.2490   23.0277 C   0  0  1  0  0  0  0  0  0  0  0  0
   10.9010   15.0591   22.2352 C   0  0  0  0  0  0  0  0  0  0  0  0
    9.8488   15.1737   21.1386 C   0  0  1  0  0  0  0  0  0  0  0  0
    8.4480   15.0574   21.7882 C   0  0  0  0  0  0  0  0  0  0  0  0
    9.9974   16.6312   20.7902 C   0  0  0  0  0  0  0  0  0  0  0  0
    9.7809   17.1591   19.7204 O   0  0  0  0  0  0  0  0  0  0  0  0
   10.3492   17.2475   21.9855 N   0  0  0  0  0  0  0  0  0  0  0  0
  2  1  1  6
  2  3  1  0
  2  4  1  0
  4  5  2  0
  5  6  1  0
  6  7  2  0
  7  8  1  0
  8  9  2  0
  9 10  1  0
 10 11  1  0
 11 12  2  0
 11 13  1  0
 13 14  1  0
 15 14  1  6
 15 16  1  0
 16 17  1  0
 17 18  1  1
 17 19  1  0
 19 20  2  0
 19 21  1  0
  9  4  1  0
 18 13  1  0
 21 15  1  0
M  CHG  2   2   1   3  -1
M  END
>  <alias>  (17) 
None

>  <Experiment code>  (17) 
nan

>  <CrystalformSites upload name>  (17) 
nan

>  <inchikey>  (17) 
ABGYSGOHXUTZSE-QLMNROTDSA-N

>  <Crystalforms upload name>  (17) 
nan

>  <Quatassemblies upload name>  (17) 
nan

>  <ConformerSites alias>  (17) 
nan

>  <ConformerSites short tag>  (17) 
nan

>  <Crystalforms short tag>  (17) 
nan

>  <Centroid res>  (17) 
nan

>  <Quatassemblies short tag>  (17) 
nan

>  <observation_longname>  (17) 
nan

>  <name>  (17) 
ABGYSGOHXUTZSE-QLMNROTDSA-N

>  <CanonSites upload name>  (17) 
nan

>  <tags>  (17) 
[]

>  <energy_score>  (17) 
12.219768

>  <original SMILES>  (17) 
C[S@@+]([O-])c1ccccc1CC(=O)N1C[C@H]2C[C@@H](C1)C(=O)N2

>  <ref_mols>  (17) 
A4386a

>  <Pose>  (17) 
nan

>  <distance_score>  (17) 
1.214748

>  <ConformerSites upload name>  (17) 
nan

>  <HIPPO Pose ID>  (17) 
207778

>  <Crystalforms alias>  (17) 
nan

>  <original ID>  (17) 
ABGYSGOHXUTZSE-QLMNROTDSA-N

>  <CanonSites alias>  (17) 
nan

>  <CrystalformSites alias>  (17) 
nan

>  <ref_pdb>  (17) 
A4386a

>  <CanonSites short tag>  (17) 
nan

>  <Quatassemblies alias>  (17) 
nan

>  <HIPPO Compound ID>  (17) 
122711

>  <CrystalformSites short tag>  (17) 
nan

$$$$
CJGWUQPZRLLSPL-JTQLQIEISA-N
     RDKit          3D

 21 22  0  0  0  0  0  0  0  0999 V2000
    9.1801    9.0883   23.5453 C   0  0  0  0  0  0  0  0  0  0  0  0
    9.0386   10.8515   23.9438 S   0  0  0  0  0  0  0  0  0  0  0  0
    7.6659   10.9603   25.0956 C   0  0  0  0  0  0  0  0  0  0  0  0
    6.9810    9.8292   25.5535 C   0  0  0  0  0  0  0  0  0  0  0  0
    5.9070    9.9319   26.4451 C   0  0  0  0  0  0  0  0  0  0  0  0
    5.5053   11.1780   26.9002 C   0  0  0  0  0  0  0  0  0  0  0  0
    4.0839   11.3201   28.1355 Br  0  0  0  0  0  0  0  0  0  0  0  0
    6.1678   12.3187   26.4684 C   0  0  0  0  0  0  0  0  0  0  0  0
    7.2570   12.2231   25.5769 C   0  0  0  0  0  0  0  0  0  0  0  0
    7.9492   13.5086   25.1852 C   0  0  0  0  0  0  0  0  0  0  0  0
    7.5761   14.0356   23.7972 C   0  0  0  0  0  0  0  0  0  0  0  0
    6.4363   14.0589   23.4198 O   0  0  0  0  0  0  0  0  0  0  0  0
    8.7683   14.5291   23.1827 N   0  0  0  0  0  0  0  0  0  0  0  0
    9.0276   15.9578   23.6204 C   0  0  0  0  0  0  0  0  0  0  0  0
   10.5261   16.2555   23.6979 C   0  0  0  0  0  0  0  0  0  0  0  0
   11.0254   16.5098   22.2975 C   0  0  0  0  0  0  0  0  0  0  0  0
   10.4563   15.4086   21.4216 C   0  0  2  0  0  0  0  0  0  0  0  0
   10.5099   15.7968   19.9355 C   0  0  0  0  0  0  0  0  0  0  0  0
   10.7465   14.6343   19.1280 N   0  0  0  0  0  0  0  0  0  0  0  0
   10.3792   16.9445   19.6284 O   0  0  0  0  0  0  0  0  0  0  0  0
    8.9956   15.1359   21.8149 C   0  0  0  0  0  0  0  0  0  0  0  0
  1  2  1  0
  2  3  1  0
  3  4  2  0
  4  5  1  0
  5  6  2  0
  6  7  1  0
  6  8  1  0
  8  9  2  0
  9 10  1  0
 10 11  1  0
 11 12  2  0
 11 13  1  0
 13 14  1  0
 14 15  1  0
 15 16  1  0
 16 17  1  0
 17 18  1  6
 18 19  1  0
 18 20  2  0
 17 21  1  0
  9  3  1  0
 21 13  1  0
M  END
>  <alias>  (18) 
None

>  <Experiment code>  (18) 
nan

>  <CrystalformSites upload name>  (18) 
nan

>  <inchikey>  (18) 
CJGWUQPZRLLSPL-JTQLQIEISA-N

>  <Crystalforms upload name>  (18) 
nan

>  <Quatassemblies upload name>  (18) 
nan

>  <ConformerSites alias>  (18) 
nan

>  <ConformerSites short tag>  (18) 
nan

>  <Crystalforms short tag>  (18) 
nan

>  <Centroid res>  (18) 
nan

>  <Quatassemblies short tag>  (18) 
nan

>  <observation_longname>  (18) 
nan

>  <name>  (18) 
CJGWUQPZRLLSPL-JTQLQIEISA-N

>  <CanonSites upload name>  (18) 
nan

>  <tags>  (18) 
[]

>  <energy_score>  (18) 
193.705103

>  <original SMILES>  (18) 
CSc1ccc(Br)cc1CC(=O)N1CCC[C@H](C(N)=O)C1

>  <ref_mols>  (18) 
A4386a

>  <Pose>  (18) 
nan

>  <distance_score>  (18) 
0.622164

>  <ConformerSites upload name>  (18) 
nan

>  <HIPPO Pose ID>  (18) 
207877

>  <Crystalforms alias>  (18) 
nan

>  <original ID>  (18) 
CJGWUQPZRLLSPL-JTQLQIEISA-N

>  <CanonSites alias>  (18) 
nan

>  <CrystalformSites alias>  (18) 
nan

>  <ref_pdb>  (18) 
A4386a

>  <CanonSites short tag>  (18) 
nan

>  <Quatassemblies alias>  (18) 
nan

>  <HIPPO Compound ID>  (18) 
122752

>  <CrystalformSites short tag>  (18) 
nan

$$$$
CJGWUQPZRLLSPL-SNVBAGLBSA-N
     RDKit          3D

 21 22  0  0  0  0  0  0  0  0999 V2000
    9.2591    8.9356   23.5227 C   0  0  0  0  0  0  0  0  0  0  0  0
    9.1680   10.7204   23.7947 S   0  0  0  0  0  0  0  0  0  0  0  0
    7.8320   10.9429   24.9650 C   0  0  0  0  0  0  0  0  0  0  0  0
    7.0959    9.8691   25.4801 C   0  0  0  0  0  0  0  0  0  0  0  0
    6.0378   10.0672   26.3723 C   0  0  0  0  0  0  0  0  0  0  0  0
    5.7043   11.3548   26.7655 C   0  0  0  0  0  0  0  0  0  0  0  0
    4.2860   11.6291   27.9819 Br  0  0  0  0  0  0  0  0  0  0  0  0
    6.4250   12.4399   26.2793 C   0  0  0  0  0  0  0  0  0  0  0  0
    7.5011   12.2471   25.3881 C   0  0  0  0  0  0  0  0  0  0  0  0
    8.2447   13.4741   24.8983 C   0  0  0  0  0  0  0  0  0  0  0  0
    7.7566   13.9974   23.5424 C   0  0  0  0  0  0  0  0  0  0  0  0
    6.5896   13.9666   23.2576 O   0  0  0  0  0  0  0  0  0  0  0  0
    8.8716   14.5547   22.8379 N   0  0  0  0  0  0  0  0  0  0  0  0
    9.0938   15.9820   23.2659 C   0  0  0  0  0  0  0  0  0  0  0  0
   10.6064   16.2660   23.3325 C   0  0  0  0  0  0  0  0  0  0  0  0
   11.2670   15.9331   22.0041 C   0  0  0  0  0  0  0  0  0  0  0  0
   10.1616   16.0271   20.9762 C   0  0  1  0  0  0  0  0  0  0  0  0
   10.6005   15.8322   19.5116 C   0  0  0  0  0  0  0  0  0  0  0  0
   11.1667   14.5403   19.2445 N   0  0  0  0  0  0  0  0  0  0  0  0
   10.4884   16.7956   18.8079 O   0  0  0  0  0  0  0  0  0  0  0  0
    8.9571   15.1866   21.4503 C   0  0  0  0  0  0  0  0  0  0  0  0
  1  2  1  0
  2  3  1  0
  3  4  2  0
  4  5  1  0
  5  6  2  0
  6  7  1  0
  6  8  1  0
  8  9  2  0
  9 10  1  0
 10 11  1  0
 11 12  2  0
 11 13  1  0
 13 14  1  0
 14 15  1  0
 15 16  1  0
 16 17  1  0
 17 18  1  6
 18 19  1  0
 18 20  2  0
 17 21  1  0
  9  3  1  0
 21 13  1  0
M  END
>  <alias>  (19) 
None

>  <Experiment code>  (19) 
nan

>  <CrystalformSites upload name>  (19) 
nan

>  <inchikey>  (19) 
CJGWUQPZRLLSPL-SNVBAGLBSA-N

>  <Crystalforms upload name>  (19) 
nan

>  <Quatassemblies upload name>  (19) 
nan

>  <ConformerSites alias>  (19) 
nan

>  <ConformerSites short tag>  (19) 
nan

>  <Crystalforms short tag>  (19) 
nan

>  <Centroid res>  (19) 
nan

>  <Quatassemblies short tag>  (19) 
nan

>  <observation_longname>  (19) 
nan

>  <name>  (19) 
CJGWUQPZRLLSPL-SNVBAGLBSA-N

>  <CanonSites upload name>  (19) 
nan

>  <tags>  (19) 
[]

>  <energy_score>  (19) 
58.641573

>  <original SMILES>  (19) 
CSc1ccc(Br)cc1CC(=O)N1CCC[C@@H](C(N)=O)C1

>  <ref_mols>  (19) 
A4386a

>  <Pose>  (19) 
nan

>  <distance_score>  (19) 
0.630703

>  <ConformerSites upload name>  (19) 
nan

>  <HIPPO Pose ID>  (19) 
207878

>  <Crystalforms alias>  (19) 
nan

>  <original ID>  (19) 
CJGWUQPZRLLSPL-SNVBAGLBSA-N

>  <CanonSites alias>  (19) 
nan

>  <CrystalformSites alias>  (19) 
nan

>  <ref_pdb>  (19) 
A4386a

>  <CanonSites short tag>  (19) 
nan

>  <Quatassemblies alias>  (19) 
nan

>  <HIPPO Compound ID>  (19) 
122752

>  <CrystalformSites short tag>  (19) 
nan

$$$$
JYKYJMCCOZVCCX-CYBMUJFWSA-N
     RDKit          3D

 21 22  0  0  0  0  0  0  0  0999 V2000
    9.9808    8.6631   23.4981 C   0  0  0  0  0  0  0  0  0  0  0  0
    8.6912    9.1277   24.1089 C   0  0  0  0  0  0  0  0  0  0  0  0
    8.6729   10.9291   24.2447 S   0  0  0  0  0  0  0  0  0  0  0  0
    7.3125   11.2523   25.3696 C   0  0  0  0  0  0  0  0  0  0  0  0
    6.5078   10.2327   25.9039 C   0  0  0  0  0  0  0  0  0  0  0  0
    5.4812   10.5083   26.8095 C   0  0  0  0  0  0  0  0  0  0  0  0
    5.2205   11.8192   27.1779 C   0  0  0  0  0  0  0  0  0  0  0  0
    5.9945   12.8490   26.6488 C   0  0  0  0  0  0  0  0  0  0  0  0
    7.0523   12.5820   25.7568 C   0  0  0  0  0  0  0  0  0  0  0  0
    7.8725   13.7524   25.2546 C   0  0  0  0  0  0  0  0  0  0  0  0
    7.4950   14.2632   23.8572 C   0  0  0  0  0  0  0  0  0  0  0  0
    6.3459   14.3453   23.5147 O   0  0  0  0  0  0  0  0  0  0  0  0
    8.6992   14.6668   23.1877 N   0  0  0  0  0  0  0  0  0  0  0  0
    9.0526   16.0674   23.5675 C   0  0  0  0  0  0  0  0  0  0  0  0
   10.5771   16.1694   23.7213 C   0  0  0  0  0  0  0  0  0  0  0  0
   11.2684   15.7136   22.4451 C   0  0  0  0  0  0  0  0  0  0  0  0
   10.2619   15.9245   21.3388 C   0  0  1  0  0  0  0  0  0  0  0  0
   10.5628   15.6188   19.8531 C   0  0  0  0  0  0  0  0  0  0  0  0
   11.9339   15.2815   19.5615 N   0  0  0  0  0  0  0  0  0  0  0  0
    9.6185   15.7486   19.1241 O   0  0  0  0  0  0  0  0  0  0  0  0
    8.9205   15.2290   21.7701 C   0  0  0  0  0  0  0  0  0  0  0  0
  1  2  1  0
  2  3  1  0
  3  4  1  0
  4  5  2  0
  5  6  1  0
  6  7  2  0
  7  8  1  0
  8  9  2  0
  9 10  1  0
 10 11  1  0
 11 12  2  0
 11 13  1  0
 13 14  1  0
 14 15  1  0
 15 16  1  0
 16 17  1  0
 17 18  1  6
 18 19  1  0
 18 20  2  0
 17 21  1  0
  9  4  1  0
 21 13  1  0
M  END
>  <alias>  (20) 
None

>  <Experiment code>  (20) 
nan

>  <CrystalformSites upload name>  (20) 
nan

>  <inchikey>  (20) 
JYKYJMCCOZVCCX-CYBMUJFWSA-N

>  <Crystalforms upload name>  (20) 
nan

>  <Quatassemblies upload name>  (20) 
nan

>  <ConformerSites alias>  (20) 
nan

>  <ConformerSites short tag>  (20) 
nan

>  <Crystalforms short tag>  (20) 
nan

>  <Centroid res>  (20) 
nan

>  <Quatassemblies short tag>  (20) 
nan

>  <observation_longname>  (20) 
nan

>  <name>  (20) 
JYKYJMCCOZVCCX-CYBMUJFWSA-N

>  <CanonSites upload name>  (20) 
nan

>  <tags>  (20) 
[]

>  <energy_score>  (20) 
154.264949

>  <original SMILES>  (20) 
CCSc1ccccc1CC(=O)N1CCC[C@@H](C(N)=O)C1

>  <ref_mols>  (20) 
A4386a

>  <Pose>  (20) 
nan

>  <distance_score>  (20) 
1.090861

>  <ConformerSites upload name>  (20) 
nan

>  <HIPPO Pose ID>  (20) 
208023

>  <Crystalforms alias>  (20) 
nan

>  <original ID>  (20) 
JYKYJMCCOZVCCX-CYBMUJFWSA-N

>  <CanonSites alias>  (20) 
nan

>  <CrystalformSites alias>  (20) 
nan

>  <ref_pdb>  (20) 
A4386a

>  <CanonSites short tag>  (20) 
nan

>  <Quatassemblies alias>  (20) 
nan

>  <HIPPO Compound ID>  (20) 
122809

>  <CrystalformSites short tag>  (20) 
nan

$$$$
ROIJZOVRQUHLNA-OLZOCXBDSA-N
     RDKit          3D

 21 23  0  0  0  0  0  0  0  0999 V2000
    9.9125    8.7788   23.4914 C   0  0  0  0  0  0  0  0  0  0  0  0
    8.6486    9.2377   24.1635 C   0  0  0  0  0  0  0  0  0  0  0  0
    8.5975   11.0419   24.3261 S   0  0  0  0  0  0  0  0  0  0  0  0
    7.2319   11.3313   25.4595 C   0  0  0  0  0  0  0  0  0  0  0  0
    6.4647   10.2813   25.9928 C   0  0  0  0  0  0  0  0  0  0  0  0
    5.4389   10.5148   26.9110 C   0  0  0  0  0  0  0  0  0  0  0  0
    5.1419   11.8125   27.2975 C   0  0  0  0  0  0  0  0  0  0  0  0
    5.8726   12.8728   26.7670 C   0  0  0  0  0  0  0  0  0  0  0  0
    6.9247   12.6521   25.8552 C   0  0  0  0  0  0  0  0  0  0  0  0
    7.6658   13.8675   25.3261 C   0  0  0  0  0  0  0  0  0  0  0  0
    7.2675   14.2685   23.9001 C   0  0  0  0  0  0  0  0  0  0  0  0
    6.1175   14.2620   23.5519 O   0  0  0  0  0  0  0  0  0  0  0  0
    8.4531   14.6184   23.1826 N   0  0  0  0  0  0  0  0  0  0  0  0
    8.7631   16.1113   23.3728 C   0  0  0  0  0  0  0  0  0  0  0  0
   10.2204   16.5724   23.0686 C   0  0  2  0  0  0  0  0  0  0  0  0
   10.2911   16.7893   21.5748 C   0  0  0  0  0  0  0  0  0  0  0  0
   10.0667   15.3315   21.2096 C   0  0  2  0  0  0  0  0  0  0  0  0
    8.6553   14.9828   21.7257 C   0  0  0  0  0  0  0  0  0  0  0  0
   11.0967   14.6968   22.1126 C   0  0  0  0  0  0  0  0  0  0  0  0
   11.7338   13.6814   21.9569 O   0  0  0  0  0  0  0  0  0  0  0  0
   11.1577   15.5019   23.2370 N   0  0  0  0  0  0  0  0  0  0  0  0
  1  2  1  0
  2  3  1  0
  3  4  1  0
  4  5  2  0
  5  6  1  0
  6  7  2  0
  7  8  1  0
  8  9  2  0
  9 10  1  0
 10 11  1  0
 11 12  2  0
 11 13  1  0
 13 14  1  0
 15 14  1  6
 15 16  1  0
 16 17  1  0
 17 18  1  1
 17 19  1  0
 19 20  2  0
 19 21  1  0
  9  4  1  0
 18 13  1  0
 21 15  1  0
M  END
>  <alias>  (21) 
None

>  <Experiment code>  (21) 
nan

>  <CrystalformSites upload name>  (21) 
nan

>  <inchikey>  (21) 
ROIJZOVRQUHLNA-OLZOCXBDSA-N

>  <Crystalforms upload name>  (21) 
nan

>  <Quatassemblies upload name>  (21) 
nan

>  <ConformerSites alias>  (21) 
nan

>  <ConformerSites short tag>  (21) 
nan

>  <Crystalforms short tag>  (21) 
nan

>  <Centroid res>  (21) 
nan

>  <Quatassemblies short tag>  (21) 
nan

>  <observation_longname>  (21) 
nan

>  <name>  (21) 
ROIJZOVRQUHLNA-OLZOCXBDSA-N

>  <CanonSites upload name>  (21) 
nan

>  <tags>  (21) 
[]

>  <energy_score>  (21) 
29.680035

>  <original SMILES>  (21) 
CCSc1ccccc1CC(=O)N1C[C@@H]2C[C@H](C1)C(=O)N2

>  <ref_mols>  (21) 
A4386a

>  <Pose>  (21) 
nan

>  <distance_score>  (21) 
1.866803

>  <ConformerSites upload name>  (21) 
nan

>  <HIPPO Pose ID>  (21) 
208024

>  <Crystalforms alias>  (21) 
nan

>  <original ID>  (21) 
ROIJZOVRQUHLNA-OLZOCXBDSA-N

>  <CanonSites alias>  (21) 
nan

>  <CrystalformSites alias>  (21) 
nan

>  <ref_pdb>  (21) 
A4386a

>  <CanonSites short tag>  (21) 
nan

>  <Quatassemblies alias>  (21) 
nan

>  <HIPPO Compound ID>  (21) 
122810

>  <CrystalformSites short tag>  (21) 
nan

$$$$
ROIJZOVRQUHLNA-QWHCGFSZSA-N
     RDKit          3D

 21 23  0  0  0  0  0  0  0  0999 V2000
    9.2445    8.6575   23.0955 C   0  0  0  0  0  0  0  0  0  0  0  0
    9.4456    9.5752   24.2652 C   0  0  0  0  0  0  0  0  0  0  0  0
    8.6955   11.2074   24.0110 S   0  0  0  0  0  0  0  0  0  0  0  0
    7.4114   11.2752   25.2673 C   0  0  0  0  0  0  0  0  0  0  0  0
    6.7178   10.1175   25.6537 C   0  0  0  0  0  0  0  0  0  0  0  0
    5.7110   10.1553   26.6202 C   0  0  0  0  0  0  0  0  0  0  0  0
    5.3610   11.3642   27.2034 C   0  0  0  0  0  0  0  0  0  0  0  0
    6.0151   12.5310   26.8152 C   0  0  0  0  0  0  0  0  0  0  0  0
    7.0435   12.5053   25.8518 C   0  0  0  0  0  0  0  0  0  0  0  0
    7.6878   13.8226   25.4707 C   0  0  0  0  0  0  0  0  0  0  0  0
    7.1921   14.3828   24.1340 C   0  0  0  0  0  0  0  0  0  0  0  0
    6.0208   14.5608   23.9340 O   0  0  0  0  0  0  0  0  0  0  0  0
    8.3243   14.6150   23.2926 N   0  0  0  0  0  0  0  0  0  0  0  0
    8.8678   16.0271   23.5207 C   0  0  0  0  0  0  0  0  0  0  0  0
   10.3369   16.3006   23.0677 C   0  0  1  0  0  0  0  0  0  0  0  0
   10.8428   15.0619   22.3538 C   0  0  0  0  0  0  0  0  0  0  0  0
    9.8236   15.1381   21.2248 C   0  0  1  0  0  0  0  0  0  0  0  0
    8.4066   15.0520   21.8418 C   0  0  0  0  0  0  0  0  0  0  0  0
    9.9977   16.5778   20.8082 C   0  0  0  0  0  0  0  0  0  0  0  0
    9.8001   17.0573   19.7120 O   0  0  0  0  0  0  0  0  0  0  0  0
   10.3448   17.2449   21.9767 N   0  0  0  0  0  0  0  0  0  0  0  0
  1  2  1  0
  2  3  1  0
  3  4  1  0
  4  5  2  0
  5  6  1  0
  6  7  2  0
  7  8  1  0
  8  9  2  0
  9 10  1  0
 10 11  1  0
 11 12  2  0
 11 13  1  0
 13 14  1  0
 15 14  1  6
 15 16  1  0
 16 17  1  0
 17 18  1  1
 17 19  1  0
 19 20  2  0
 19 21  1  0
  9  4  1  0
 18 13  1  0
 21 15  1  0
M  END
>  <alias>  (22) 
None

>  <Experiment code>  (22) 
nan

>  <CrystalformSites upload name>  (22) 
nan

>  <inchikey>  (22) 
ROIJZOVRQUHLNA-QWHCGFSZSA-N

>  <Crystalforms upload name>  (22) 
nan

>  <Quatassemblies upload name>  (22) 
nan

>  <ConformerSites alias>  (22) 
nan

>  <ConformerSites short tag>  (22) 
nan

>  <Crystalforms short tag>  (22) 
nan

>  <Centroid res>  (22) 
nan

>  <Quatassemblies short tag>  (22) 
nan

>  <observation_longname>  (22) 
nan

>  <name>  (22) 
ROIJZOVRQUHLNA-QWHCGFSZSA-N

>  <CanonSites upload name>  (22) 
nan

>  <tags>  (22) 
[]

>  <energy_score>  (22) 
38.071792

>  <original SMILES>  (22) 
CCSc1ccccc1CC(=O)N1C[C@H]2C[C@@H](C1)C(=O)N2

>  <ref_mols>  (22) 
A4386a

>  <Pose>  (22) 
nan

>  <distance_score>  (22) 
1.317127

>  <ConformerSites upload name>  (22) 
nan

>  <HIPPO Pose ID>  (22) 
208025

>  <Crystalforms alias>  (22) 
nan

>  <original ID>  (22) 
ROIJZOVRQUHLNA-QWHCGFSZSA-N

>  <CanonSites alias>  (22) 
nan

>  <CrystalformSites alias>  (22) 
nan

>  <ref_pdb>  (22) 
A4386a

>  <CanonSites short tag>  (22) 
nan

>  <Quatassemblies alias>  (22) 
nan

>  <HIPPO Compound ID>  (22) 
122810

>  <CrystalformSites short tag>  (22) 
nan

$$$$
FVZMXFCKEYPRMB-NTZNESFSSA-N
     RDKit          3D

 21 24  0  0  0  0  0  0  0  0999 V2000
   10.1700   16.6436   19.6298 C   0  0  0  0  0  0  0  0  0  0  0  0
   10.1367   16.0903   20.9521 N   0  0  0  0  0  0  0  0  0  0  0  0
   10.8291   16.5183   22.0683 C   0  0  0  0  0  0  0  0  0  0  0  0
   11.4781   17.5344   22.1933 O   0  0  0  0  0  0  0  0  0  0  0  0
   10.6882   15.3871   23.0890 C   0  0  2  0  0  0  0  0  0  0  0  0
   10.7694   14.2296   22.1133 C   0  0  0  0  0  0  0  0  0  0  0  0
    9.6834   14.7596   21.1894 C   0  0  1  0  0  0  0  0  0  0  0  0
    8.3576   14.8844   21.9739 C   0  0  0  0  0  0  0  0  0  0  0  0
    8.3473   14.1327   23.2568 N   0  0  0  0  0  0  0  0  0  0  0  0
    7.3005   13.9223   24.2062 C   0  0  0  0  0  0  0  0  0  0  0  0
    6.1895   14.3737   24.2543 O   0  0  0  0  0  0  0  0  0  0  0  0
    7.7966   12.8510   25.2071 C   0  0  2  0  0  0  0  0  0  0  0  0
    8.4304   11.6719   24.4186 C   0  0  0  0  0  0  0  0  0  0  0  0
    7.8435   10.0910   25.0670 S   0  0  0  0  0  0  0  0  0  0  0  0
    6.6261   10.8645   26.0704 C   0  0  0  0  0  0  0  0  0  0  0  0
    5.6851   10.1897   26.8359 C   0  0  0  0  0  0  0  0  0  0  0  0
    4.8249   10.9224   27.6501 C   0  0  0  0  0  0  0  0  0  0  0  0
    4.9110   12.3166   27.6840 C   0  0  0  0  0  0  0  0  0  0  0  0
    5.8565   12.9871   26.9046 C   0  0  0  0  0  0  0  0  0  0  0  0
    6.7131   12.2567   26.0828 C   0  0  0  0  0  0  0  0  0  0  0  0
    9.2568   15.3392   23.7067 C   0  0  0  0  0  0  0  0  0  0  0  0
  1  2  1  0
  2  3  1  0
  3  4  2  0
  3  5  1  0
  5  6  1  0
  6  7  1  0
  7  8  1  1
  8  9  1  0
  9 10  1  0
 10 11  2  0
 12 10  1  6
 12 13  1  0
 13 14  1  0
 14 15  1  0
 15 16  2  0
 16 17  1  0
 17 18  2  0
 18 19  1  0
 19 20  2  0
  9 21  1  0
  7  2  1  0
 20 12  1  0
  5 21  1  6
 20 15  1  0
M  END
>  <alias>  (23) 
None

>  <Experiment code>  (23) 
nan

>  <CrystalformSites upload name>  (23) 
nan

>  <inchikey>  (23) 
FVZMXFCKEYPRMB-NTZNESFSSA-N

>  <Crystalforms upload name>  (23) 
nan

>  <Quatassemblies upload name>  (23) 
nan

>  <ConformerSites alias>  (23) 
nan

>  <ConformerSites short tag>  (23) 
nan

>  <Crystalforms short tag>  (23) 
nan

>  <Centroid res>  (23) 
nan

>  <Quatassemblies short tag>  (23) 
nan

>  <observation_longname>  (23) 
nan

>  <name>  (23) 
FVZMXFCKEYPRMB-NTZNESFSSA-N

>  <CanonSites upload name>  (23) 
nan

>  <tags>  (23) 
[]

>  <energy_score>  (23) 
22.687269

>  <original SMILES>  (23) 
CN1C(=O)[C@@H]2C[C@H]1CN(C(=O)[C@@H]1CSc3ccccc31)C2

>  <ref_mols>  (23) 
A4386a

>  <Pose>  (23) 
nan

>  <distance_score>  (23) 
1.679192

>  <ConformerSites upload name>  (23) 
nan

>  <HIPPO Pose ID>  (23) 
208103

>  <Crystalforms alias>  (23) 
nan

>  <original ID>  (23) 
FVZMXFCKEYPRMB-NTZNESFSSA-N

>  <CanonSites alias>  (23) 
nan

>  <CrystalformSites alias>  (23) 
nan

>  <ref_pdb>  (23) 
A4386a

>  <CanonSites short tag>  (23) 
nan

>  <Quatassemblies alias>  (23) 
nan

>  <HIPPO Compound ID>  (23) 
122832

>  <CrystalformSites short tag>  (23) 
nan

$$$$
FVZMXFCKEYPRMB-NTZNESFSSA-N
     RDKit          3D

 21 24  0  0  0  0  0  0  0  0999 V2000
   10.5642   16.1465   19.1214 C   0  0  0  0  0  0  0  0  0  0  0  0
   10.7320   16.2047   20.5536 N   0  0  0  0  0  0  0  0  0  0  0  0
   10.0765   17.1456   21.3666 C   0  0  0  0  0  0  0  0  0  0  0  0
    9.4952   18.1453   20.9995 O   0  0  0  0  0  0  0  0  0  0  0  0
   10.0754   16.5351   22.7779 C   0  0  2  0  0  0  0  0  0  0  0  0
   11.2100   15.5314   22.6586 C   0  0  0  0  0  0  0  0  0  0  0  0
   10.7560   14.9930   21.3202 C   0  0  1  0  0  0  0  0  0  0  0  0
    9.2762   14.5375   21.4670 C   0  0  0  0  0  0  0  0  0  0  0  0
    8.8543   14.1768   22.8308 N   0  0  0  0  0  0  0  0  0  0  0  0
    7.6506   13.5573   23.3043 C   0  0  0  0  0  0  0  0  0  0  0  0
    6.6460   13.2585   22.7198 O   0  0  0  0  0  0  0  0  0  0  0  0
    7.8996   13.2098   24.7731 C   0  0  2  0  0  0  0  0  0  0  0  0
    9.0348   12.1621   24.7875 C   0  0  0  0  0  0  0  0  0  0  0  0
    8.2650   10.5185   24.8401 S   0  0  0  0  0  0  0  0  0  0  0  0
    6.8551   11.1768   25.6639 C   0  0  0  0  0  0  0  0  0  0  0  0
    5.9351   10.4503   26.4033 C   0  0  0  0  0  0  0  0  0  0  0  0
    4.9168   11.1396   27.0584 C   0  0  0  0  0  0  0  0  0  0  0  0
    4.8150   12.5319   26.9392 C   0  0  0  0  0  0  0  0  0  0  0  0
    5.7411   13.2538   26.1804 C   0  0  0  0  0  0  0  0  0  0  0  0
    6.7758   12.5705   25.5527 C   0  0  0  0  0  0  0  0  0  0  0  0
    8.7529   15.7338   22.9651 C   0  0  0  0  0  0  0  0  0  0  0  0
  1  2  1  0
  2  3  1  0
  3  4  2  0
  3  5  1  0
  5  6  1  0
  6  7  1  0
  7  8  1  1
  8  9  1  0
  9 10  1  0
 10 11  2  0
 12 10  1  6
 12 13  1  0
 13 14  1  0
 14 15  1  0
 15 16  2  0
 16 17  1  0
 17 18  2  0
 18 19  1  0
 19 20  2  0
  9 21  1  0
  7  2  1  0
 20 12  1  0
  5 21  1  6
 20 15  1  0
M  END
>  <alias>  (24) 
None

>  <Experiment code>  (24) 
nan

>  <CrystalformSites upload name>  (24) 
nan

>  <inchikey>  (24) 
FVZMXFCKEYPRMB-NTZNESFSSA-N

>  <Crystalforms upload name>  (24) 
nan

>  <Quatassemblies upload name>  (24) 
nan

>  <ConformerSites alias>  (24) 
nan

>  <ConformerSites short tag>  (24) 
nan

>  <Crystalforms short tag>  (24) 
nan

>  <Centroid res>  (24) 
nan

>  <Quatassemblies short tag>  (24) 
nan

>  <observation_longname>  (24) 
nan

>  <name>  (24) 
FVZMXFCKEYPRMB-NTZNESFSSA-N

>  <CanonSites upload name>  (24) 
nan

>  <tags>  (24) 
[]

>  <energy_score>  (24) 
40.077139

>  <original SMILES>  (24) 
CN1C(=O)[C@@H]2C[C@H]1CN(C(=O)[C@@H]1CSc3ccccc31)C2

>  <ref_mols>  (24) 
A4386a

>  <Pose>  (24) 
nan

>  <distance_score>  (24) 
1.491629

>  <ConformerSites upload name>  (24) 
nan

>  <HIPPO Pose ID>  (24) 
208104

>  <Crystalforms alias>  (24) 
nan

>  <original ID>  (24) 
FVZMXFCKEYPRMB-NTZNESFSSA-N

>  <CanonSites alias>  (24) 
nan

>  <CrystalformSites alias>  (24) 
nan

>  <ref_pdb>  (24) 
A4386a

>  <CanonSites short tag>  (24) 
nan

>  <Quatassemblies alias>  (24) 
nan

>  <HIPPO Compound ID>  (24) 
122832

>  <CrystalformSites short tag>  (24) 
nan

$$$$
FVZMXFCKEYPRMB-DMDPSCGWSA-N
     RDKit          3D

 21 24  0  0  0  0  0  0  0  0999 V2000
    9.8799   16.6329   19.6075 C   0  0  0  0  0  0  0  0  0  0  0  0
   10.2029   16.2332   20.9399 N   0  0  0  0  0  0  0  0  0  0  0  0
   11.1895   15.3019   21.2245 C   0  0  0  0  0  0  0  0  0  0  0  0
   11.9727   14.7872   20.4544 O   0  0  0  0  0  0  0  0  0  0  0  0
   10.9043   14.9262   22.6598 C   0  0  1  0  0  0  0  0  0  0  0  0
   10.3704   16.2513   23.1775 C   0  0  0  0  0  0  0  0  0  0  0  0
    9.3339   16.4224   22.1028 C   0  0  2  0  0  0  0  0  0  0  0  0
    8.2850   15.2627   22.2686 C   0  0  0  0  0  0  0  0  0  0  0  0
    8.4383   14.0144   23.1927 N   0  0  0  0  0  0  0  0  0  0  0  0
    8.6489   13.9157   24.6003 C   0  0  0  0  0  0  0  0  0  0  0  0
    8.8531   14.7728   25.4246 O   0  0  0  0  0  0  0  0  0  0  0  0
    8.5115   12.4587   25.0978 C   0  0  2  0  0  0  0  0  0  0  0  0
    8.7137   11.3236   24.0870 C   0  0  0  0  0  0  0  0  0  0  0  0
    8.0081    9.8256   24.8187 S   0  0  0  0  0  0  0  0  0  0  0  0
    6.8911   10.7740   25.7987 C   0  0  0  0  0  0  0  0  0  0  0  0
    5.8150   10.2665   26.5104 C   0  0  0  0  0  0  0  0  0  0  0  0
    5.0365   11.1458   27.2588 C   0  0  0  0  0  0  0  0  0  0  0  0
    5.3424   12.5111   27.2832 C   0  0  0  0  0  0  0  0  0  0  0  0
    6.4381   13.0103   26.5730 C   0  0  0  0  0  0  0  0  0  0  0  0
    7.2178   12.1360   25.8227 C   0  0  0  0  0  0  0  0  0  0  0  0
    9.7573   13.9045   22.4587 C   0  0  0  0  0  0  0  0  0  0  0  0
  1  2  1  0
  2  3  1  0
  3  4  2  0
  3  5  1  0
  5  6  1  0
  6  7  1  0
  7  8  1  1
  8  9  1  0
  9 10  1  0
 10 11  2  0
 12 10  1  6
 12 13  1  0
 13 14  1  0
 14 15  1  0
 15 16  2  0
 16 17  1  0
 17 18  2  0
 18 19  1  0
 19 20  2  0
  9 21  1  0
  7  2  1  0
 20 12  1  0
  5 21  1  6
 20 15  1  0
M  END
>  <alias>  (25) 
None

>  <Experiment code>  (25) 
nan

>  <CrystalformSites upload name>  (25) 
nan

>  <inchikey>  (25) 
FVZMXFCKEYPRMB-DMDPSCGWSA-N

>  <Crystalforms upload name>  (25) 
nan

>  <Quatassemblies upload name>  (25) 
nan

>  <ConformerSites alias>  (25) 
nan

>  <ConformerSites short tag>  (25) 
nan

>  <Crystalforms short tag>  (25) 
nan

>  <Centroid res>  (25) 
nan

>  <Quatassemblies short tag>  (25) 
nan

>  <observation_longname>  (25) 
nan

>  <name>  (25) 
FVZMXFCKEYPRMB-DMDPSCGWSA-N

>  <CanonSites upload name>  (25) 
nan

>  <tags>  (25) 
[]

>  <energy_score>  (25) 
10.931054

>  <original SMILES>  (25) 
CN1C(=O)[C@H]2C[C@@H]1CN(C(=O)[C@@H]1CSc3ccccc31)C2

>  <ref_mols>  (25) 
A4386a

>  <Pose>  (25) 
nan

>  <distance_score>  (25) 
1.758506

>  <ConformerSites upload name>  (25) 
nan

>  <HIPPO Pose ID>  (25) 
208105

>  <Crystalforms alias>  (25) 
nan

>  <original ID>  (25) 
FVZMXFCKEYPRMB-DMDPSCGWSA-N

>  <CanonSites alias>  (25) 
nan

>  <CrystalformSites alias>  (25) 
nan

>  <ref_pdb>  (25) 
A4386a

>  <CanonSites short tag>  (25) 
nan

>  <Quatassemblies alias>  (25) 
nan

>  <HIPPO Compound ID>  (25) 
122832

>  <CrystalformSites short tag>  (25) 
nan

$$$$
FVZMXFCKEYPRMB-MDZLAQPJSA-N
     RDKit          3D

 21 24  0  0  0  0  0  0  0  0999 V2000
   10.7073   16.2513   19.3342 C   0  0  0  0  0  0  0  0  0  0  0  0
   10.8752   16.2007   20.7752 N   0  0  0  0  0  0  0  0  0  0  0  0
   10.1746   17.0618   21.6442 C   0  0  0  0  0  0  0  0  0  0  0  0
    9.5796   18.0677   21.3188 O   0  0  0  0  0  0  0  0  0  0  0  0
   10.1022   16.3181   23.0072 C   0  0  2  0  0  0  0  0  0  0  0  0
   11.2046   15.2961   22.8407 C   0  0  0  0  0  0  0  0  0  0  0  0
   10.8072   14.9289   21.4314 C   0  0  1  0  0  0  0  0  0  0  0  0
    9.2934   14.5861   21.4228 C   0  0  0  0  0  0  0  0  0  0  0  0
    8.6907   14.0025   22.6084 N   0  0  0  0  0  0  0  0  0  0  0  0
    7.3983   13.4847   22.8231 C   0  0  0  0  0  0  0  0  0  0  0  0
    6.4300   13.4747   22.1066 O   0  0  0  0  0  0  0  0  0  0  0  0
    7.2735   12.7460   24.1172 C   0  0  1  0  0  0  0  0  0  0  0  0
    8.4273   11.8232   24.4816 C   0  0  0  0  0  0  0  0  0  0  0  0
    7.6690   10.8591   25.8254 S   0  0  0  0  0  0  0  0  0  0  0  0
    6.7097   12.2643   26.3630 C   0  0  0  0  0  0  0  0  0  0  0  0
    6.0370   12.4017   27.5623 C   0  0  0  0  0  0  0  0  0  0  0  0
    5.3300   13.5811   27.7855 C   0  0  0  0  0  0  0  0  0  0  0  0
    5.2921   14.5869   26.8069 C   0  0  0  0  0  0  0  0  0  0  0  0
    5.9487   14.4270   25.5842 C   0  0  0  0  0  0  0  0  0  0  0  0
    6.6642   13.2630   25.3743 C   0  0  0  0  0  0  0  0  0  0  0  0
    8.7686   15.5038   23.1056 C   0  0  0  0  0  0  0  0  0  0  0  0
  1  2  1  0
  2  3  1  0
  3  4  2  0
  3  5  1  0
  5  6  1  0
  6  7  1  0
  7  8  1  1
  8  9  1  0
  9 10  1  0
 10 11  2  0
 12 10  1  6
 12 13  1  0
 13 14  1  0
 14 15  1  0
 15 16  2  0
 16 17  1  0
 17 18  2  0
 18 19  1  0
 19 20  2  0
  9 21  1  0
  7  2  1  0
 20 12  1  0
  5 21  1  6
 20 15  1  0
M  END
>  <alias>  (26) 
None

>  <Experiment code>  (26) 
nan

>  <CrystalformSites upload name>  (26) 
nan

>  <inchikey>  (26) 
FVZMXFCKEYPRMB-MDZLAQPJSA-N

>  <Crystalforms upload name>  (26) 
nan

>  <Quatassemblies upload name>  (26) 
nan

>  <ConformerSites alias>  (26) 
nan

>  <ConformerSites short tag>  (26) 
nan

>  <Crystalforms short tag>  (26) 
nan

>  <Centroid res>  (26) 
nan

>  <Quatassemblies short tag>  (26) 
nan

>  <observation_longname>  (26) 
nan

>  <name>  (26) 
FVZMXFCKEYPRMB-MDZLAQPJSA-N

>  <CanonSites upload name>  (26) 
nan

>  <tags>  (26) 
[]

>  <energy_score>  (26) 
28.774646

>  <original SMILES>  (26) 
CN1C(=O)[C@@H]2C[C@H]1CN(C(=O)[C@H]1CSc3ccccc31)C2

>  <ref_mols>  (26) 
A4386a

>  <Pose>  (26) 
nan

>  <distance_score>  (26) 
2.195229

>  <ConformerSites upload name>  (26) 
nan

>  <HIPPO Pose ID>  (26) 
208106

>  <Crystalforms alias>  (26) 
nan

>  <original ID>  (26) 
FVZMXFCKEYPRMB-MDZLAQPJSA-N

>  <CanonSites alias>  (26) 
nan

>  <CrystalformSites alias>  (26) 
nan

>  <ref_pdb>  (26) 
A4386a

>  <CanonSites short tag>  (26) 
nan

>  <Quatassemblies alias>  (26) 
nan

>  <HIPPO Compound ID>  (26) 
122832

>  <CrystalformSites short tag>  (26) 
nan

$$$$
BZCLBVGVMUPYRD-YNEHKIRRSA-N
     RDKit          3D

 21 24  0  0  0  0  0  0  0  0999 V2000
   11.3397   16.1948   20.1364 O   0  0  0  0  0  0  0  0  0  0  0  0
   10.4393   15.7575   20.8221 C   0  0  0  0  0  0  0  0  0  0  0  0
    9.1274   15.6516   20.4411 N   0  0  0  0  0  0  0  0  0  0  0  0
    8.3046   15.0704   21.4654 C   0  0  0  0  0  0  0  0  0  0  0  0
    9.1034   15.3360   22.7480 C   0  0  2  0  0  0  0  0  0  0  0  0
   10.5321   15.1821   22.2022 C   0  0  2  0  0  0  0  0  0  0  0  0
   11.4165   15.9079   23.1602 C   0  0  0  0  0  0  0  0  0  0  0  0
   11.0351   15.4085   24.5418 C   0  0  0  0  0  0  0  0  0  0  0  0
    9.5086   15.3023   24.6956 C   0  0  0  0  0  0  0  0  0  0  0  0
    8.8045   14.2887   23.7968 N   0  0  0  0  0  0  0  0  0  0  0  0
    7.5672   13.8862   24.3862 C   0  0  0  0  0  0  0  0  0  0  0  0
    6.4633   14.3380   24.2646 O   0  0  0  0  0  0  0  0  0  0  0  0
    7.8662   12.6257   25.2139 C   0  0  2  0  0  0  0  0  0  0  0  0
    8.3662   11.5101   24.2792 C   0  0  0  0  0  0  0  0  0  0  0  0
    7.8470    9.9224   24.9733 S   0  0  0  0  0  0  0  0  0  0  0  0
    6.6148   10.6793   25.9810 C   0  0  0  0  0  0  0  0  0  0  0  0
    5.6544   10.0126   26.7251 C   0  0  0  0  0  0  0  0  0  0  0  0
    4.7914   10.7482   27.5352 C   0  0  0  0  0  0  0  0  0  0  0  0
    4.8894   12.1409   27.5824 C   0  0  0  0  0  0  0  0  0  0  0  0
    5.8561   12.8062   26.8266 C   0  0  0  0  0  0  0  0  0  0  0  0
    6.7160   12.0695   26.0149 C   0  0  0  0  0  0  0  0  0  0  0  0
  1  2  2  0
  2  3  1  0
  3  4  1  0
  5  4  1  6
  5  6  1  0
  6  7  1  1
  7  8  1  0
  8  9  1  0
  9 10  1  0
 10 11  1  0
 11 12  2  0
 13 11  1  6
 13 14  1  0
 14 15  1  0
 15 16  1  0
 16 17  2  0
 17 18  1  0
 18 19  2  0
 19 20  1  0
 20 21  2  0
  6  2  1  0
 21 13  1  0
 10  5  1  0
 21 16  1  0
M  END
>  <alias>  (27) 
None

>  <Experiment code>  (27) 
nan

>  <CrystalformSites upload name>  (27) 
nan

>  <inchikey>  (27) 
BZCLBVGVMUPYRD-YNEHKIRRSA-N

>  <Crystalforms upload name>  (27) 
nan

>  <Quatassemblies upload name>  (27) 
nan

>  <ConformerSites alias>  (27) 
nan

>  <ConformerSites short tag>  (27) 
nan

>  <Crystalforms short tag>  (27) 
nan

>  <Centroid res>  (27) 
nan

>  <Quatassemblies short tag>  (27) 
nan

>  <observation_longname>  (27) 
nan

>  <name>  (27) 
BZCLBVGVMUPYRD-YNEHKIRRSA-N

>  <CanonSites upload name>  (27) 
nan

>  <tags>  (27) 
[]

>  <energy_score>  (27) 
-41.921382

>  <original SMILES>  (27) 
O=C1NC[C@@H]2[C@@H]1CCCN2C(=O)[C@@H]1CSc2ccccc21

>  <ref_mols>  (27) 
A4386a

>  <Pose>  (27) 
nan

>  <distance_score>  (27) 
1.58236

>  <ConformerSites upload name>  (27) 
nan

>  <HIPPO Pose ID>  (27) 
208115

>  <Crystalforms alias>  (27) 
nan

>  <original ID>  (27) 
BZCLBVGVMUPYRD-YNEHKIRRSA-N

>  <CanonSites alias>  (27) 
nan

>  <CrystalformSites alias>  (27) 
nan

>  <ref_pdb>  (27) 
A4386a

>  <CanonSites short tag>  (27) 
nan

>  <Quatassemblies alias>  (27) 
nan

>  <HIPPO Compound ID>  (27) 
122834

>  <CrystalformSites short tag>  (27) 
nan

$$$$
GETTUYBPGFPSRH-CYZMBNFOSA-N
     RDKit          3D

 21 24  0  0  0  0  0  0  0  0999 V2000
    9.2275   16.7115   19.0552 O   0  0  0  0  0  0  0  0  0  0  0  0
    9.9770   15.9953   19.6702 C   0  0  0  0  0  0  0  0  0  0  0  0
   11.2161   15.6074   19.1978 N   0  0  0  0  0  0  0  0  0  0  0  0
   12.0512   15.2405   20.3020 C   0  0  0  0  0  0  0  0  0  0  0  0
   11.2534   15.6888   21.5059 C   0  0  2  0  0  0  0  0  0  0  0  0
   11.4119   15.0384   22.8483 C   0  0  0  0  0  0  0  0  0  0  0  0
   10.1259   15.3452   23.6446 C   0  0  0  0  0  0  0  0  0  0  0  0
    8.8916   14.5712   23.1768 N   0  0  0  0  0  0  0  0  0  0  0  0
    7.9539   14.2786   24.3372 C   0  0  0  0  0  0  0  0  0  0  0  0
    7.0552   14.9042   24.7648 O   0  0  0  0  0  0  0  0  0  0  0  0
    8.4121   12.9015   24.9084 C   0  0  2  0  0  0  0  0  0  0  0  0
    8.9934   11.9769   23.8099 C   0  0  0  0  0  0  0  0  0  0  0  0
    8.7712   10.2592   24.2822 S   0  0  0  0  0  0  0  0  0  0  0  0
    7.4365   10.7017   25.3379 C   0  0  0  0  0  0  0  0  0  0  0  0
    6.5652    9.7980   25.9141 C   0  0  0  0  0  0  0  0  0  0  0  0
    5.5683   10.2560   26.7667 C   0  0  0  0  0  0  0  0  0  0  0  0
    5.4576   11.6219   27.0304 C   0  0  0  0  0  0  0  0  0  0  0  0
    6.3428   12.5330   26.4448 C   0  0  0  0  0  0  0  0  0  0  0  0
    7.3310   12.0738   25.5773 C   0  0  0  0  0  0  0  0  0  0  0  0
    8.8859   15.7267   22.1391 C   0  0  0  0  0  0  0  0  0  0  0  0
    9.8531   15.3806   21.0298 C   0  0  1  0  0  0  0  0  0  0  0  0
  1  2  2  0
  2  3  1  0
  3  4  1  0
  5  4  1  6
  5  6  1  0
  6  7  1  0
  7  8  1  0
  8  9  1  0
  9 10  2  0
 11  9  1  6
 11 12  1  0
 12 13  1  0
 13 14  1  0
 14 15  2  0
 15 16  1  0
 16 17  2  0
 17 18  1  0
 18 19  2  0
  8 20  1  0
 21 20  1  1
 21  2  1  0
 21  5  1  0
 19 11  1  0
 19 14  1  0
M  END
>  <alias>  (28) 
None

>  <Experiment code>  (28) 
nan

>  <CrystalformSites upload name>  (28) 
nan

>  <inchikey>  (28) 
GETTUYBPGFPSRH-CYZMBNFOSA-N

>  <Crystalforms upload name>  (28) 
nan

>  <Quatassemblies upload name>  (28) 
nan

>  <ConformerSites alias>  (28) 
nan

>  <ConformerSites short tag>  (28) 
nan

>  <Crystalforms short tag>  (28) 
nan

>  <Centroid res>  (28) 
nan

>  <Quatassemblies short tag>  (28) 
nan

>  <observation_longname>  (28) 
nan

>  <name>  (28) 
GETTUYBPGFPSRH-CYZMBNFOSA-N

>  <CanonSites upload name>  (28) 
nan

>  <tags>  (28) 
[]

>  <energy_score>  (28) 
32.632143

>  <original SMILES>  (28) 
O=C1NC[C@@H]2CCN(C(=O)[C@@H]3CSc4ccccc43)C[C@@H]12

>  <ref_mols>  (28) 
A4386a

>  <Pose>  (28) 
nan

>  <distance_score>  (28) 
1.081729

>  <ConformerSites upload name>  (28) 
nan

>  <HIPPO Pose ID>  (28) 
208156

>  <Crystalforms alias>  (28) 
nan

>  <original ID>  (28) 
GETTUYBPGFPSRH-CYZMBNFOSA-N

>  <CanonSites alias>  (28) 
nan

>  <CrystalformSites alias>  (28) 
nan

>  <ref_pdb>  (28) 
A4386a

>  <CanonSites short tag>  (28) 
nan

>  <Quatassemblies alias>  (28) 
nan

>  <HIPPO Compound ID>  (28) 
122846

>  <CrystalformSites short tag>  (28) 
nan

$$$$
GETTUYBPGFPSRH-UHTWSYAYSA-N
     RDKit          3D

 21 24  0  0  0  0  0  0  0  0999 V2000
    9.4541   17.4631   19.6032 O   0  0  0  0  0  0  0  0  0  0  0  0
   10.0440   16.4582   19.9121 C   0  0  0  0  0  0  0  0  0  0  0  0
   11.0940   15.8893   19.2098 N   0  0  0  0  0  0  0  0  0  0  0  0
   11.9469   15.1824   20.1284 C   0  0  0  0  0  0  0  0  0  0  0  0
   11.3369   15.4896   21.4839 C   0  0  2  0  0  0  0  0  0  0  0  0
   11.3747   14.5072   22.6183 C   0  0  0  0  0  0  0  0  0  0  0  0
   10.2207   14.8508   23.5753 C   0  0  0  0  0  0  0  0  0  0  0  0
    8.7913   14.6057   23.0462 N   0  0  0  0  0  0  0  0  0  0  0  0
    7.8399   14.2685   24.1748 C   0  0  0  0  0  0  0  0  0  0  0  0
    7.1734   14.9690   24.8416 O   0  0  0  0  0  0  0  0  0  0  0  0
    7.8243   12.7239   24.2269 C   0  0  1  0  0  0  0  0  0  0  0  0
    9.1108   11.9133   23.9893 C   0  0  0  0  0  0  0  0  0  0  0  0
    8.6623   10.1781   24.2195 S   0  0  0  0  0  0  0  0  0  0  0  0
    7.3514   10.6365   25.3105 C   0  0  0  0  0  0  0  0  0  0  0  0
    6.5885    9.7538   26.0421 C   0  0  0  0  0  0  0  0  0  0  0  0
    5.6027   10.2384   26.8936 C   0  0  0  0  0  0  0  0  0  0  0  0
    5.3805   11.6130   26.9831 C   0  0  0  0  0  0  0  0  0  0  0  0
    6.1147   12.5037   26.1936 C   0  0  0  0  0  0  0  0  0  0  0  0
    7.1001   12.0113   25.3447 C   0  0  0  0  0  0  0  0  0  0  0  0
    9.0950   15.9418   22.3641 C   0  0  0  0  0  0  0  0  0  0  0  0
    9.8791   15.6095   21.1145 C   0  0  1  0  0  0  0  0  0  0  0  0
  1  2  2  0
  2  3  1  0
  3  4  1  0
  5  4  1  6
  5  6  1  0
  6  7  1  0
  7  8  1  0
  8  9  1  0
  9 10  2  0
 11  9  1  1
 11 12  1  0
 12 13  1  0
 13 14  1  0
 14 15  2  0
 15 16  1  0
 16 17  2  0
 17 18  1  0
 18 19  2  0
  8 20  1  0
 21 20  1  1
 21  2  1  0
 21  5  1  0
 19 11  1  0
 19 14  1  0
M  END
>  <alias>  (29) 
None

>  <Experiment code>  (29) 
nan

>  <CrystalformSites upload name>  (29) 
nan

>  <inchikey>  (29) 
GETTUYBPGFPSRH-UHTWSYAYSA-N

>  <Crystalforms upload name>  (29) 
nan

>  <Quatassemblies upload name>  (29) 
nan

>  <ConformerSites alias>  (29) 
nan

>  <ConformerSites short tag>  (29) 
nan

>  <Crystalforms short tag>  (29) 
nan

>  <Centroid res>  (29) 
nan

>  <Quatassemblies short tag>  (29) 
nan

>  <observation_longname>  (29) 
nan

>  <name>  (29) 
GETTUYBPGFPSRH-UHTWSYAYSA-N

>  <CanonSites upload name>  (29) 
nan

>  <tags>  (29) 
[]

>  <energy_score>  (29) 
20.510033

>  <original SMILES>  (29) 
O=C1NC[C@@H]2CCN(C(=O)[C@H]3CSc4ccccc43)C[C@@H]12

>  <ref_mols>  (29) 
A4386a

>  <Pose>  (29) 
nan

>  <distance_score>  (29) 
1.169329

>  <ConformerSites upload name>  (29) 
nan

>  <HIPPO Pose ID>  (29) 
208157

>  <Crystalforms alias>  (29) 
nan

>  <original ID>  (29) 
GETTUYBPGFPSRH-UHTWSYAYSA-N

>  <CanonSites alias>  (29) 
nan

>  <CrystalformSites alias>  (29) 
nan

>  <ref_pdb>  (29) 
A4386a

>  <CanonSites short tag>  (29) 
nan

>  <Quatassemblies alias>  (29) 
nan

>  <HIPPO Compound ID>  (29) 
122846

>  <CrystalformSites short tag>  (29) 
nan

$$$$
GETTUYBPGFPSRH-UHTWSYAYSA-N
     RDKit          3D

 21 24  0  0  0  0  0  0  0  0999 V2000
    9.2258   16.7242   18.9645 O   0  0  0  0  0  0  0  0  0  0  0  0
    9.9632   16.0864   19.6754 C   0  0  0  0  0  0  0  0  0  0  0  0
   11.2454   15.7398   19.3119 N   0  0  0  0  0  0  0  0  0  0  0  0
   11.9836   15.2454   20.4289 C   0  0  0  0  0  0  0  0  0  0  0  0
   11.0933   15.5488   21.6064 C   0  0  2  0  0  0  0  0  0  0  0  0
   11.0640   14.6549   22.8151 C   0  0  0  0  0  0  0  0  0  0  0  0
    9.7774   15.0085   23.5975 C   0  0  0  0  0  0  0  0  0  0  0  0
    8.4194   14.6243   22.9536 N   0  0  0  0  0  0  0  0  0  0  0  0
    7.4308   14.4346   23.9707 C   0  0  0  0  0  0  0  0  0  0  0  0
    6.6583   15.2121   24.4622 O   0  0  0  0  0  0  0  0  0  0  0  0
    7.3886   12.9300   24.3316 C   0  0  1  0  0  0  0  0  0  0  0  0
    8.6640   12.0818   24.2751 C   0  0  0  0  0  0  0  0  0  0  0  0
    8.1441   10.4052   24.7625 S   0  0  0  0  0  0  0  0  0  0  0  0
    6.8394   11.0605   25.7652 C   0  0  0  0  0  0  0  0  0  0  0  0
    6.0655   10.3348   26.6570 C   0  0  0  0  0  0  0  0  0  0  0  0
    5.1159   11.0068   27.4212 C   0  0  0  0  0  0  0  0  0  0  0  0
    4.9336   12.3835   27.2585 C   0  0  0  0  0  0  0  0  0  0  0  0
    5.6765   13.0972   26.3113 C   0  0  0  0  0  0  0  0  0  0  0  0
    6.6351   12.4344   25.5541 C   0  0  0  0  0  0  0  0  0  0  0  0
    8.7373   15.8471   22.0785 C   0  0  0  0  0  0  0  0  0  0  0  0
    9.7167   15.4339   21.0003 C   0  0  1  0  0  0  0  0  0  0  0  0
  1  2  2  0
  2  3  1  0
  3  4  1  0
  5  4  1  6
  5  6  1  0
  6  7  1  0
  7  8  1  0
  8  9  1  0
  9 10  2  0
 11  9  1  1
 11 12  1  0
 12 13  1  0
 13 14  1  0
 14 15  2  0
 15 16  1  0
 16 17  2  0
 17 18  1  0
 18 19  2  0
  8 20  1  0
 21 20  1  1
 21  2  1  0
 21  5  1  0
 19 11  1  0
 19 14  1  0
M  END
>  <alias>  (30) 
None

>  <Experiment code>  (30) 
nan

>  <CrystalformSites upload name>  (30) 
nan

>  <inchikey>  (30) 
GETTUYBPGFPSRH-UHTWSYAYSA-N

>  <Crystalforms upload name>  (30) 
nan

>  <Quatassemblies upload name>  (30) 
nan

>  <ConformerSites alias>  (30) 
nan

>  <ConformerSites short tag>  (30) 
nan

>  <Crystalforms short tag>  (30) 
nan

>  <Centroid res>  (30) 
nan

>  <Quatassemblies short tag>  (30) 
nan

>  <observation_longname>  (30) 
nan

>  <name>  (30) 
GETTUYBPGFPSRH-UHTWSYAYSA-N

>  <CanonSites upload name>  (30) 
nan

>  <tags>  (30) 
[]

>  <energy_score>  (30) 
17.813484

>  <original SMILES>  (30) 
O=C1NC[C@@H]2CCN(C(=O)[C@H]3CSc4ccccc43)C[C@@H]12

>  <ref_mols>  (30) 
A4386a

>  <Pose>  (30) 
nan

>  <distance_score>  (30) 
1.447609

>  <ConformerSites upload name>  (30) 
nan

>  <HIPPO Pose ID>  (30) 
208158

>  <Crystalforms alias>  (30) 
nan

>  <original ID>  (30) 
GETTUYBPGFPSRH-UHTWSYAYSA-N

>  <CanonSites alias>  (30) 
nan

>  <CrystalformSites alias>  (30) 
nan

>  <ref_pdb>  (30) 
A4386a

>  <CanonSites short tag>  (30) 
nan

>  <Quatassemblies alias>  (30) 
nan

>  <HIPPO Compound ID>  (30) 
122846

>  <CrystalformSites short tag>  (30) 
nan

$$$$
SSKNNSPYZGBIMN-NTZNESFSSA-N
     RDKit          3D

 21 23  0  0  0  0  0  0  0  0999 V2000
   10.2363   16.1840   25.9100 C   0  0  0  0  0  0  0  0  0  0  0  0
   10.3406   15.2528   24.7099 C   0  0  2  0  0  0  0  0  0  0  0  0
   11.1588   15.8003   23.5533 C   0  0  0  0  0  0  0  0  0  0  0  0
   10.8988   14.9523   22.3013 C   0  0  2  0  0  0  0  0  0  0  0  0
   11.3724   15.6600   21.0263 C   0  0  0  0  0  0  0  0  0  0  0  0
   11.3586   14.7729   19.8795 N   0  0  0  0  0  0  0  0  0  0  0  0
   11.6955   16.8099   21.1191 O   0  0  0  0  0  0  0  0  0  0  0  0
    9.3984   14.6559   22.2562 C   0  0  0  0  0  0  0  0  0  0  0  0
    8.9937   13.6737   23.3235 N   0  0  0  0  0  0  0  0  0  0  0  0
    7.7988   12.9313   23.4932 C   0  0  0  0  0  0  0  0  0  0  0  0
    6.7698   12.9617   22.8809 O   0  0  0  0  0  0  0  0  0  0  0  0
    8.0677   11.9970   24.6756 C   0  0  2  0  0  0  0  0  0  0  0  0
    8.6343   10.6793   24.1428 C   0  0  0  0  0  0  0  0  0  0  0  0
    7.7869    9.3342   24.9879 S   0  0  0  0  0  0  0  0  0  0  0  0
    6.6634   10.3914   25.8312 C   0  0  0  0  0  0  0  0  0  0  0  0
    5.6584    9.9921   26.6992 C   0  0  0  0  0  0  0  0  0  0  0  0
    4.8789   10.9614   27.3286 C   0  0  0  0  0  0  0  0  0  0  0  0
    5.1002   12.3160   27.0701 C   0  0  0  0  0  0  0  0  0  0  0  0
    6.1100   12.7089   26.1909 C   0  0  0  0  0  0  0  0  0  0  0  0
    6.8918   11.7357   25.5714 C   0  0  0  0  0  0  0  0  0  0  0  0
    8.9460   14.9339   24.1611 C   0  0  0  0  0  0  0  0  0  0  0  0
  2  1  1  1
  2  3  1  0
  3  4  1  0
  4  5  1  6
  5  6  1  0
  5  7  2  0
  4  8  1  0
  8  9  1  0
  9 10  1  0
 10 11  2  0
 12 10  1  6
 12 13  1  0
 13 14  1  0
 14 15  1  0
 15 16  2  0
 16 17  1  0
 17 18  2  0
 18 19  1  0
 19 20  2  0
  9 21  1  0
 21  2  1  0
 20 12  1  0
 20 15  1  0
M  END
>  <alias>  (31) 
None

>  <Experiment code>  (31) 
nan

>  <CrystalformSites upload name>  (31) 
nan

>  <inchikey>  (31) 
SSKNNSPYZGBIMN-NTZNESFSSA-N

>  <Crystalforms upload name>  (31) 
nan

>  <Quatassemblies upload name>  (31) 
nan

>  <ConformerSites alias>  (31) 
nan

>  <ConformerSites short tag>  (31) 
nan

>  <Crystalforms short tag>  (31) 
nan

>  <Centroid res>  (31) 
nan

>  <Quatassemblies short tag>  (31) 
nan

>  <observation_longname>  (31) 
nan

>  <name>  (31) 
SSKNNSPYZGBIMN-NTZNESFSSA-N

>  <CanonSites upload name>  (31) 
nan

>  <tags>  (31) 
[]

>  <energy_score>  (31) 
177.405563

>  <original SMILES>  (31) 
C[C@@H]1C[C@H](C(N)=O)CN(C(=O)[C@@H]2CSc3ccccc32)C1

>  <ref_mols>  (31) 
A4386a

>  <Pose>  (31) 
nan

>  <distance_score>  (31) 
1.530784

>  <ConformerSites upload name>  (31) 
nan

>  <HIPPO Pose ID>  (31) 
208159

>  <Crystalforms alias>  (31) 
nan

>  <original ID>  (31) 
SSKNNSPYZGBIMN-NTZNESFSSA-N

>  <CanonSites alias>  (31) 
nan

>  <CrystalformSites alias>  (31) 
nan

>  <ref_pdb>  (31) 
A4386a

>  <CanonSites short tag>  (31) 
nan

>  <Quatassemblies alias>  (31) 
nan

>  <HIPPO Compound ID>  (31) 
122847

>  <CrystalformSites short tag>  (31) 
nan

$$$$
SSKNNSPYZGBIMN-GMXVVIOVSA-N
     RDKit          3D

 21 23  0  0  0  0  0  0  0  0999 V2000
   11.5074   14.7155   24.4192 C   0  0  0  0  0  0  0  0  0  0  0  0
   10.6478   15.8042   23.7647 C   0  0  1  0  0  0  0  0  0  0  0  0
   11.1698   16.1786   22.3794 C   0  0  0  0  0  0  0  0  0  0  0  0
   10.6695   15.1470   21.3880 C   0  0  2  0  0  0  0  0  0  0  0  0
   10.7500   15.6523   19.9396 C   0  0  0  0  0  0  0  0  0  0  0  0
   12.1013   15.5630   19.4383 N   0  0  0  0  0  0  0  0  0  0  0  0
    9.7414   16.0103   19.4026 O   0  0  0  0  0  0  0  0  0  0  0  0
    9.2117   14.8265   21.7386 C   0  0  0  0  0  0  0  0  0  0  0  0
    9.0053   13.9916   22.9693 N   0  0  0  0  0  0  0  0  0  0  0  0
    7.8389   13.3338   23.4627 C   0  0  0  0  0  0  0  0  0  0  0  0
    6.7064   13.3548   23.0673 O   0  0  0  0  0  0  0  0  0  0  0  0
    8.2746   12.4229   24.6189 C   0  0  2  0  0  0  0  0  0  0  0  0
    8.9307   11.1631   24.0286 C   0  0  0  0  0  0  0  0  0  0  0  0
    8.1340    9.6913   24.7191 S   0  0  0  0  0  0  0  0  0  0  0  0
    6.9800   10.6281   25.6592 C   0  0  0  0  0  0  0  0  0  0  0  0
    5.9851   10.1039   26.4712 C   0  0  0  0  0  0  0  0  0  0  0  0
    5.1708   10.9725   27.1963 C   0  0  0  0  0  0  0  0  0  0  0  0
    5.3497   12.3541   27.0900 C   0  0  0  0  0  0  0  0  0  0  0  0
    6.3442   12.8748   26.2600 C   0  0  0  0  0  0  0  0  0  0  0  0
    7.1589   12.0025   25.5398 C   0  0  0  0  0  0  0  0  0  0  0  0
    9.1728   15.3469   23.6493 C   0  0  0  0  0  0  0  0  0  0  0  0
  2  1  1  6
  2  3  1  0
  3  4  1  0
  4  5  1  6
  5  6  1  0
  5  7  2  0
  4  8  1  0
  8  9  1  0
  9 10  1  0
 10 11  2  0
 12 10  1  6
 12 13  1  0
 13 14  1  0
 14 15  1  0
 15 16  2  0
 16 17  1  0
 17 18  2  0
 18 19  1  0
 19 20  2  0
  9 21  1  0
 21  2  1  0
 20 12  1  0
 20 15  1  0
M  END
>  <alias>  (32) 
None

>  <Experiment code>  (32) 
nan

>  <CrystalformSites upload name>  (32) 
nan

>  <inchikey>  (32) 
SSKNNSPYZGBIMN-GMXVVIOVSA-N

>  <Crystalforms upload name>  (32) 
nan

>  <Quatassemblies upload name>  (32) 
nan

>  <ConformerSites alias>  (32) 
nan

>  <ConformerSites short tag>  (32) 
nan

>  <Crystalforms short tag>  (32) 
nan

>  <Centroid res>  (32) 
nan

>  <Quatassemblies short tag>  (32) 
nan

>  <observation_longname>  (32) 
nan

>  <name>  (32) 
SSKNNSPYZGBIMN-GMXVVIOVSA-N

>  <CanonSites upload name>  (32) 
nan

>  <tags>  (32) 
[]

>  <energy_score>  (32) 
-98.773371

>  <original SMILES>  (32) 
C[C@H]1C[C@H](C(N)=O)CN(C(=O)[C@@H]2CSc3ccccc32)C1

>  <ref_mols>  (32) 
A4386a

>  <Pose>  (32) 
nan

>  <distance_score>  (32) 
1.167709

>  <ConformerSites upload name>  (32) 
nan

>  <HIPPO Pose ID>  (32) 
208160

>  <Crystalforms alias>  (32) 
nan

>  <original ID>  (32) 
SSKNNSPYZGBIMN-GMXVVIOVSA-N

>  <CanonSites alias>  (32) 
nan

>  <CrystalformSites alias>  (32) 
nan

>  <ref_pdb>  (32) 
A4386a

>  <CanonSites short tag>  (32) 
nan

>  <Quatassemblies alias>  (32) 
nan

>  <HIPPO Compound ID>  (32) 
122847

>  <CrystalformSites short tag>  (32) 
nan

$$$$
SSKNNSPYZGBIMN-NQBHXWOUSA-N
     RDKit          3D

 21 23  0  0  0  0  0  0  0  0999 V2000
   11.6171   15.1520   24.9142 C   0  0  0  0  0  0  0  0  0  0  0  0
   10.4398   14.6824   24.1019 C   0  0  2  0  0  0  0  0  0  0  0  0
   10.5049   15.1293   22.6461 C   0  0  0  0  0  0  0  0  0  0  0  0
    9.5614   16.3183   22.5128 C   0  0  1  0  0  0  0  0  0  0  0  0
    9.4307   16.7876   21.0598 C   0  0  0  0  0  0  0  0  0  0  0  0
    9.2991   18.2305   20.9524 N   0  0  0  0  0  0  0  0  0  0  0  0
    9.4265   15.9382   20.2129 O   0  0  0  0  0  0  0  0  0  0  0  0
    8.1780   15.9282   23.1308 C   0  0  0  0  0  0  0  0  0  0  0  0
    7.9882   14.6574   24.0011 N   0  0  0  0  0  0  0  0  0  0  0  0
    6.9515   14.3038   24.9282 C   0  0  0  0  0  0  0  0  0  0  0  0
    6.0161   14.9402   25.3322 O   0  0  0  0  0  0  0  0  0  0  0  0
    7.2801   12.8924   25.4786 C   0  0  2  0  0  0  0  0  0  0  0  0
    7.7491   11.9137   24.3942 C   0  0  0  0  0  0  0  0  0  0  0  0
    7.5731   10.2455   25.0800 S   0  0  0  0  0  0  0  0  0  0  0  0
    6.2949   10.7801   26.1744 C   0  0  0  0  0  0  0  0  0  0  0  0
    5.4650    9.9522   26.9121 C   0  0  0  0  0  0  0  0  0  0  0  0
    4.5538   10.5206   27.7983 C   0  0  0  0  0  0  0  0  0  0  0  0
    4.4790   11.9088   27.9294 C   0  0  0  0  0  0  0  0  0  0  0  0
    5.3165   12.7375   27.1789 C   0  0  0  0  0  0  0  0  0  0  0  0
    6.2183   12.1721   26.2814 C   0  0  0  0  0  0  0  0  0  0  0  0
    9.1481   15.2406   24.7309 C   0  0  0  0  0  0  0  0  0  0  0  0
  2  1  1  1
  2  3  1  0
  3  4  1  0
  4  5  1  6
  5  6  1  0
  5  7  2  0
  4  8  1  0
  8  9  1  0
  9 10  1  0
 10 11  2  0
 12 10  1  6
 12 13  1  0
 13 14  1  0
 14 15  1  0
 15 16  2  0
 16 17  1  0
 17 18  2  0
 18 19  1  0
 19 20  2  0
  9 21  1  0
 21  2  1  0
 20 12  1  0
 20 15  1  0
M  END
>  <alias>  (33) 
None

>  <Experiment code>  (33) 
nan

>  <CrystalformSites upload name>  (33) 
nan

>  <inchikey>  (33) 
SSKNNSPYZGBIMN-NQBHXWOUSA-N

>  <Crystalforms upload name>  (33) 
nan

>  <Quatassemblies upload name>  (33) 
nan

>  <ConformerSites alias>  (33) 
nan

>  <ConformerSites short tag>  (33) 
nan

>  <Crystalforms short tag>  (33) 
nan

>  <Centroid res>  (33) 
nan

>  <Quatassemblies short tag>  (33) 
nan

>  <observation_longname>  (33) 
nan

>  <name>  (33) 
SSKNNSPYZGBIMN-NQBHXWOUSA-N

>  <CanonSites upload name>  (33) 
nan

>  <tags>  (33) 
[]

>  <energy_score>  (33) 
188.2969

>  <original SMILES>  (33) 
C[C@@H]1C[C@@H](C(N)=O)CN(C(=O)[C@@H]2CSc3ccccc32)C1

>  <ref_mols>  (33) 
A4386a

>  <Pose>  (33) 
nan

>  <distance_score>  (33) 
2.003799

>  <ConformerSites upload name>  (33) 
nan

>  <HIPPO Pose ID>  (33) 
208161

>  <Crystalforms alias>  (33) 
nan

>  <original ID>  (33) 
SSKNNSPYZGBIMN-NQBHXWOUSA-N

>  <CanonSites alias>  (33) 
nan

>  <CrystalformSites alias>  (33) 
nan

>  <ref_pdb>  (33) 
A4386a

>  <CanonSites short tag>  (33) 
nan

>  <Quatassemblies alias>  (33) 
nan

>  <HIPPO Compound ID>  (33) 
122847

>  <CrystalformSites short tag>  (33) 
nan

$$$$
SSKNNSPYZGBIMN-DMDPSCGWSA-N
     RDKit          3D

 21 23  0  0  0  0  0  0  0  0999 V2000
   11.3892   14.9208   24.4730 C   0  0  0  0  0  0  0  0  0  0  0  0
   10.6626   15.8683   23.5183 C   0  0  1  0  0  0  0  0  0  0  0  0
   11.2480   15.7433   22.1089 C   0  0  0  0  0  0  0  0  0  0  0  0
   10.1225   16.0286   21.1346 C   0  0  1  0  0  0  0  0  0  0  0  0
   10.4991   15.9117   19.6406 C   0  0  0  0  0  0  0  0  0  0  0  0
   10.9609   14.6056   19.2556 N   0  0  0  0  0  0  0  0  0  0  0  0
   10.4321   16.9307   19.0147 O   0  0  0  0  0  0  0  0  0  0  0  0
    8.8583   15.2563   21.5425 C   0  0  0  0  0  0  0  0  0  0  0  0
    8.8569   14.3109   22.7296 N   0  0  0  0  0  0  0  0  0  0  0  0
    7.7820   13.5985   23.3550 C   0  0  0  0  0  0  0  0  0  0  0  0
    6.5995   13.6395   23.1542 O   0  0  0  0  0  0  0  0  0  0  0  0
    8.3613   12.7133   24.4789 C   0  0  2  0  0  0  0  0  0  0  0  0
    9.2245   11.5833   23.9017 C   0  0  0  0  0  0  0  0  0  0  0  0
    8.4923    9.9807   24.3283 S   0  0  0  0  0  0  0  0  0  0  0  0
    7.2807   10.7085   25.3759 C   0  0  0  0  0  0  0  0  0  0  0  0
    6.3510   10.0190   26.1382 C   0  0  0  0  0  0  0  0  0  0  0  0
    5.4713   10.7298   26.9535 C   0  0  0  0  0  0  0  0  0  0  0  0
    5.5216   12.1252   26.9865 C   0  0  0  0  0  0  0  0  0  0  0  0
    6.4483   12.8151   26.2021 C   0  0  0  0  0  0  0  0  0  0  0  0
    7.3274   12.0981   25.3904 C   0  0  0  0  0  0  0  0  0  0  0  0
    9.1365   15.6016   23.4794 C   0  0  0  0  0  0  0  0  0  0  0  0
  2  1  1  1
  2  3  1  0
  3  4  1  0
  4  5  1  6
  5  6  1  0
  5  7  2  0
  4  8  1  0
  8  9  1  0
  9 10  1  0
 10 11  2  0
 12 10  1  6
 12 13  1  0
 13 14  1  0
 14 15  1  0
 15 16  2  0
 16 17  1  0
 17 18  2  0
 18 19  1  0
 19 20  2  0
  9 21  1  0
 21  2  1  0
 20 12  1  0
 20 15  1  0
M  END
>  <alias>  (34) 
None

>  <Experiment code>  (34) 
nan

>  <CrystalformSites upload name>  (34) 
nan

>  <inchikey>  (34) 
SSKNNSPYZGBIMN-DMDPSCGWSA-N

>  <Crystalforms upload name>  (34) 
nan

>  <Quatassemblies upload name>  (34) 
nan

>  <ConformerSites alias>  (34) 
nan

>  <ConformerSites short tag>  (34) 
nan

>  <Crystalforms short tag>  (34) 
nan

>  <Centroid res>  (34) 
nan

>  <Quatassemblies short tag>  (34) 
nan

>  <observation_longname>  (34) 
nan

>  <name>  (34) 
SSKNNSPYZGBIMN-DMDPSCGWSA-N

>  <CanonSites upload name>  (34) 
nan

>  <tags>  (34) 
[]

>  <energy_score>  (34) 
46.078905

>  <original SMILES>  (34) 
C[C@H]1C[C@@H](C(N)=O)CN(C(=O)[C@@H]2CSc3ccccc32)C1

>  <ref_mols>  (34) 
A4386a

>  <Pose>  (34) 
nan

>  <distance_score>  (34) 
1.005594

>  <ConformerSites upload name>  (34) 
nan

>  <HIPPO Pose ID>  (34) 
208162

>  <Crystalforms alias>  (34) 
nan

>  <original ID>  (34) 
SSKNNSPYZGBIMN-DMDPSCGWSA-N

>  <CanonSites alias>  (34) 
nan

>  <CrystalformSites alias>  (34) 
nan

>  <ref_pdb>  (34) 
A4386a

>  <CanonSites short tag>  (34) 
nan

>  <Quatassemblies alias>  (34) 
nan

>  <HIPPO Compound ID>  (34) 
122847

>  <CrystalformSites short tag>  (34) 
nan

$$$$
SSKNNSPYZGBIMN-MDZLAQPJSA-N
     RDKit          3D

 21 23  0  0  0  0  0  0  0  0999 V2000
   12.0482   13.8760   24.8601 C   0  0  0  0  0  0  0  0  0  0  0  0
   10.8791   13.8715   23.8897 C   0  0  2  0  0  0  0  0  0  0  0  0
   11.2325   14.5550   22.5823 C   0  0  0  0  0  0  0  0  0  0  0  0
    9.9418   14.9100   21.8605 C   0  0  2  0  0  0  0  0  0  0  0  0
   10.2738   15.8196   20.6870 C   0  0  0  0  0  0  0  0  0  0  0  0
   10.7781   15.0280   19.5776 N   0  0  0  0  0  0  0  0  0  0  0  0
   10.1685   17.0049   20.8142 O   0  0  0  0  0  0  0  0  0  0  0  0
    8.9541   15.4925   22.8849 C   0  0  0  0  0  0  0  0  0  0  0  0
    8.3733   14.3361   23.6800 N   0  0  0  0  0  0  0  0  0  0  0  0
    7.2401   14.2739   24.5428 C   0  0  0  0  0  0  0  0  0  0  0  0
    6.5080   15.1422   24.9329 O   0  0  0  0  0  0  0  0  0  0  0  0
    6.9817   12.7820   24.8610 C   0  0  1  0  0  0  0  0  0  0  0  0
    8.1241   11.7640   24.7048 C   0  0  0  0  0  0  0  0  0  0  0  0
    7.4683   10.1690   25.2658 S   0  0  0  0  0  0  0  0  0  0  0  0
    6.3130   10.9777   26.3353 C   0  0  0  0  0  0  0  0  0  0  0  0
    5.5533   10.3467   27.3086 C   0  0  0  0  0  0  0  0  0  0  0  0
    4.7209   11.1239   28.1079 C   0  0  0  0  0  0  0  0  0  0  0  0
    4.6456   12.5072   27.9085 C   0  0  0  0  0  0  0  0  0  0  0  0
    5.3883   13.1290   26.8991 C   0  0  0  0  0  0  0  0  0  0  0  0
    6.2338   12.3630   26.1079 C   0  0  0  0  0  0  0  0  0  0  0  0
    9.6457   14.5479   24.4990 C   0  0  0  0  0  0  0  0  0  0  0  0
  2  1  1  1
  2  3  1  0
  3  4  1  0
  4  5  1  6
  5  6  1  0
  5  7  2  0
  4  8  1  0
  8  9  1  0
  9 10  1  0
 10 11  2  0
 12 10  1  1
 12 13  1  0
 13 14  1  0
 14 15  1  0
 15 16  2  0
 16 17  1  0
 17 18  2  0
 18 19  1  0
 19 20  2  0
  9 21  1  0
 21  2  1  0
 20 12  1  0
 20 15  1  0
M  END
>  <alias>  (35) 
None

>  <Experiment code>  (35) 
nan

>  <CrystalformSites upload name>  (35) 
nan

>  <inchikey>  (35) 
SSKNNSPYZGBIMN-MDZLAQPJSA-N

>  <Crystalforms upload name>  (35) 
nan

>  <Quatassemblies upload name>  (35) 
nan

>  <ConformerSites alias>  (35) 
nan

>  <ConformerSites short tag>  (35) 
nan

>  <Crystalforms short tag>  (35) 
nan

>  <Centroid res>  (35) 
nan

>  <Quatassemblies short tag>  (35) 
nan

>  <observation_longname>  (35) 
nan

>  <name>  (35) 
SSKNNSPYZGBIMN-MDZLAQPJSA-N

>  <CanonSites upload name>  (35) 
nan

>  <tags>  (35) 
[]

>  <energy_score>  (35) 
188.767495

>  <original SMILES>  (35) 
C[C@@H]1C[C@H](C(N)=O)CN(C(=O)[C@H]2CSc3ccccc32)C1

>  <ref_mols>  (35) 
A4386a

>  <Pose>  (35) 
nan

>  <distance_score>  (35) 
1.85701

>  <ConformerSites upload name>  (35) 
nan

>  <HIPPO Pose ID>  (35) 
208163

>  <Crystalforms alias>  (35) 
nan

>  <original ID>  (35) 
SSKNNSPYZGBIMN-MDZLAQPJSA-N

>  <CanonSites alias>  (35) 
nan

>  <CrystalformSites alias>  (35) 
nan

>  <ref_pdb>  (35) 
A4386a

>  <CanonSites short tag>  (35) 
nan

>  <Quatassemblies alias>  (35) 
nan

>  <HIPPO Compound ID>  (35) 
122847

>  <CrystalformSites short tag>  (35) 
nan

$$$$
SSKNNSPYZGBIMN-GVXVVHGQSA-N
     RDKit          3D

 21 23  0  0  0  0  0  0  0  0999 V2000
   11.2131   13.8876   25.0738 C   0  0  0  0  0  0  0  0  0  0  0  0
   10.6194   15.1987   24.5760 C   0  0  1  0  0  0  0  0  0  0  0  0
   11.3563   15.7045   23.3550 C   0  0  0  0  0  0  0  0  0  0  0  0
   10.8078   14.9939   22.1334 C   0  0  2  0  0  0  0  0  0  0  0  0
   11.2523   15.6768   20.8436 C   0  0  0  0  0  0  0  0  0  0  0  0
   11.1209   14.7999   19.7029 N   0  0  0  0  0  0  0  0  0  0  0  0
   11.6099   16.8163   20.9135 O   0  0  0  0  0  0  0  0  0  0  0  0
    9.2902   15.0787   22.2678 C   0  0  0  0  0  0  0  0  0  0  0  0
    8.7038   14.0450   23.1853 N   0  0  0  0  0  0  0  0  0  0  0  0
    7.3638   13.6471   23.3897 C   0  0  0  0  0  0  0  0  0  0  0  0
    6.3395   14.0956   22.9482 O   0  0  0  0  0  0  0  0  0  0  0  0
    7.3004   12.3885   24.2325 C   0  0  1  0  0  0  0  0  0  0  0  0
    8.5001   11.4602   24.3493 C   0  0  0  0  0  0  0  0  0  0  0  0
    7.8068   10.0297   25.2502 S   0  0  0  0  0  0  0  0  0  0  0  0
    6.6365   11.0610   26.1035 C   0  0  0  0  0  0  0  0  0  0  0  0
    5.8316   10.6931   27.1675 C   0  0  0  0  0  0  0  0  0  0  0  0
    5.0009   11.6583   27.7335 C   0  0  0  0  0  0  0  0  0  0  0  0
    4.9647   12.9590   27.2104 C   0  0  0  0  0  0  0  0  0  0  0  0
    5.7380   13.3065   26.0994 C   0  0  0  0  0  0  0  0  0  0  0  0
    6.5734   12.3481   25.5472 C   0  0  0  0  0  0  0  0  0  0  0  0
    9.1150   15.0692   24.2463 C   0  0  0  0  0  0  0  0  0  0  0  0
  2  1  1  6
  2  3  1  0
  3  4  1  0
  4  5  1  6
  5  6  1  0
  5  7  2  0
  4  8  1  0
  8  9  1  0
  9 10  1  0
 10 11  2  0
 12 10  1  1
 12 13  1  0
 13 14  1  0
 14 15  1  0
 15 16  2  0
 16 17  1  0
 17 18  2  0
 18 19  1  0
 19 20  2  0
  9 21  1  0
 21  2  1  0
 20 12  1  0
 20 15  1  0
M  END
>  <alias>  (36) 
None

>  <Experiment code>  (36) 
nan

>  <CrystalformSites upload name>  (36) 
nan

>  <inchikey>  (36) 
SSKNNSPYZGBIMN-GVXVVHGQSA-N

>  <Crystalforms upload name>  (36) 
nan

>  <Quatassemblies upload name>  (36) 
nan

>  <ConformerSites alias>  (36) 
nan

>  <ConformerSites short tag>  (36) 
nan

>  <Crystalforms short tag>  (36) 
nan

>  <Centroid res>  (36) 
nan

>  <Quatassemblies short tag>  (36) 
nan

>  <observation_longname>  (36) 
nan

>  <name>  (36) 
SSKNNSPYZGBIMN-GVXVVHGQSA-N

>  <CanonSites upload name>  (36) 
nan

>  <tags>  (36) 
[]

>  <energy_score>  (36) 
118.469991

>  <original SMILES>  (36) 
C[C@H]1C[C@H](C(N)=O)CN(C(=O)[C@H]2CSc3ccccc32)C1

>  <ref_mols>  (36) 
A4386a

>  <Pose>  (36) 
nan

>  <distance_score>  (36) 
1.676982

>  <ConformerSites upload name>  (36) 
nan

>  <HIPPO Pose ID>  (36) 
208164

>  <Crystalforms alias>  (36) 
nan

>  <original ID>  (36) 
SSKNNSPYZGBIMN-GVXVVHGQSA-N

>  <CanonSites alias>  (36) 
nan

>  <CrystalformSites alias>  (36) 
nan

>  <ref_pdb>  (36) 
A4386a

>  <CanonSites short tag>  (36) 
nan

>  <Quatassemblies alias>  (36) 
nan

>  <HIPPO Compound ID>  (36) 
122847

>  <CrystalformSites short tag>  (36) 
nan

$$$$
SSKNNSPYZGBIMN-WZRBSPASSA-N
     RDKit          3D

 21 23  0  0  0  0  0  0  0  0999 V2000
   11.9059   14.0336   24.5633 C   0  0  0  0  0  0  0  0  0  0  0  0
   10.9183   14.3763   23.4597 C   0  0  2  0  0  0  0  0  0  0  0  0
   11.4533   15.3178   22.3997 C   0  0  0  0  0  0  0  0  0  0  0  0
   10.3015   16.0918   21.7586 C   0  0  1  0  0  0  0  0  0  0  0  0
   10.2076   16.0781   20.2098 C   0  0  0  0  0  0  0  0  0  0  0  0
   10.3737   14.7840   19.6084 N   0  0  0  0  0  0  0  0  0  0  0  0
   10.0346   17.1532   19.7105 O   0  0  0  0  0  0  0  0  0  0  0  0
    8.9213   15.9562   22.4626 C   0  0  0  0  0  0  0  0  0  0  0  0
    8.4825   14.6832   23.1726 N   0  0  0  0  0  0  0  0  0  0  0  0
    7.3340   14.4148   23.9852 C   0  0  0  0  0  0  0  0  0  0  0  0
    6.4728   15.1512   24.3861 O   0  0  0  0  0  0  0  0  0  0  0  0
    7.2237   12.8918   24.2509 C   0  0  1  0  0  0  0  0  0  0  0  0
    8.4905   12.0273   24.1676 C   0  0  0  0  0  0  0  0  0  0  0  0
    8.0282   10.3688   24.7430 S   0  0  0  0  0  0  0  0  0  0  0  0
    6.7480   11.0418   25.7586 C   0  0  0  0  0  0  0  0  0  0  0  0
    6.0132   10.3321   26.6962 C   0  0  0  0  0  0  0  0  0  0  0  0
    5.0749   11.0098   27.4683 C   0  0  0  0  0  0  0  0  0  0  0  0
    4.8632   12.3763   27.2682 C   0  0  0  0  0  0  0  0  0  0  0  0
    5.5653   13.0710   26.2768 C   0  0  0  0  0  0  0  0  0  0  0  0
    6.5157   12.4040   25.5097 C   0  0  0  0  0  0  0  0  0  0  0  0
    9.6633   15.0178   24.0437 C   0  0  0  0  0  0  0  0  0  0  0  0
  2  1  1  1
  2  3  1  0
  3  4  1  0
  4  5  1  6
  5  6  1  0
  5  7  2  0
  4  8  1  0
  8  9  1  0
  9 10  1  0
 10 11  2  0
 12 10  1  1
 12 13  1  0
 13 14  1  0
 14 15  1  0
 15 16  2  0
 16 17  1  0
 17 18  2  0
 18 19  1  0
 19 20  2  0
  9 21  1  0
 21  2  1  0
 20 12  1  0
 20 15  1  0
M  END
>  <alias>  (37) 
None

>  <Experiment code>  (37) 
nan

>  <CrystalformSites upload name>  (37) 
nan

>  <inchikey>  (37) 
SSKNNSPYZGBIMN-WZRBSPASSA-N

>  <Crystalforms upload name>  (37) 
nan

>  <Quatassemblies upload name>  (37) 
nan

>  <ConformerSites alias>  (37) 
nan

>  <ConformerSites short tag>  (37) 
nan

>  <Crystalforms short tag>  (37) 
nan

>  <Centroid res>  (37) 
nan

>  <Quatassemblies short tag>  (37) 
nan

>  <observation_longname>  (37) 
nan

>  <name>  (37) 
SSKNNSPYZGBIMN-WZRBSPASSA-N

>  <CanonSites upload name>  (37) 
nan

>  <tags>  (37) 
[]

>  <energy_score>  (37) 
71.135236

>  <original SMILES>  (37) 
C[C@@H]1C[C@@H](C(N)=O)CN(C(=O)[C@H]2CSc3ccccc32)C1

>  <ref_mols>  (37) 
A4386a

>  <Pose>  (37) 
nan

>  <distance_score>  (37) 
1.484972

>  <ConformerSites upload name>  (37) 
nan

>  <HIPPO Pose ID>  (37) 
208165

>  <Crystalforms alias>  (37) 
nan

>  <original ID>  (37) 
SSKNNSPYZGBIMN-WZRBSPASSA-N

>  <CanonSites alias>  (37) 
nan

>  <CrystalformSites alias>  (37) 
nan

>  <ref_pdb>  (37) 
A4386a

>  <CanonSites short tag>  (37) 
nan

>  <Quatassemblies alias>  (37) 
nan

>  <HIPPO Compound ID>  (37) 
122847

>  <CrystalformSites short tag>  (37) 
nan

$$$$
SSKNNSPYZGBIMN-LOWVWBTDSA-N
     RDKit          3D

 21 23  0  0  0  0  0  0  0  0999 V2000
   11.8845   14.2249   25.2032 C   0  0  0  0  0  0  0  0  0  0  0  0
   11.1658   15.2742   24.3617 C   0  0  1  0  0  0  0  0  0  0  0  0
   11.5604   15.1643   22.9017 C   0  0  0  0  0  0  0  0  0  0  0  0
   10.6531   16.0411   22.0622 C   0  0  1  0  0  0  0  0  0  0  0  0
   10.5404   15.5771   20.5822 C   0  0  0  0  0  0  0  0  0  0  0  0
   11.8413   15.4274   19.9453 N   0  0  0  0  0  0  0  0  0  0  0  0
    9.4362   15.4467   20.1372 O   0  0  0  0  0  0  0  0  0  0  0  0
    9.2764   16.1130   22.7817 C   0  0  0  0  0  0  0  0  0  0  0  0
    8.7894   14.7949   23.3728 N   0  0  0  0  0  0  0  0  0  0  0  0
    7.5019   14.4034   23.8344 C   0  0  0  0  0  0  0  0  0  0  0  0
    6.4896   15.0411   23.9604 O   0  0  0  0  0  0  0  0  0  0  0  0
    7.4653   12.8893   24.0966 C   0  0  1  0  0  0  0  0  0  0  0  0
    8.7602   12.0730   23.9945 C   0  0  0  0  0  0  0  0  0  0  0  0
    8.3130   10.3875   24.5209 S   0  0  0  0  0  0  0  0  0  0  0  0
    7.0137   11.0092   25.5493 C   0  0  0  0  0  0  0  0  0  0  0  0
    6.2693   10.2687   26.4521 C   0  0  0  0  0  0  0  0  0  0  0  0
    5.3215   10.9194   27.2383 C   0  0  0  0  0  0  0  0  0  0  0  0
    5.1111   12.2936   27.0876 C   0  0  0  0  0  0  0  0  0  0  0  0
    5.8190   13.0218   26.1256 C   0  0  0  0  0  0  0  0  0  0  0  0
    6.7696   12.3744   25.3433 C   0  0  0  0  0  0  0  0  0  0  0  0
    9.6394   15.2500   24.5359 C   0  0  0  0  0  0  0  0  0  0  0  0
  2  1  1  1
  2  3  1  0
  3  4  1  0
  4  5  1  6
  5  6  1  0
  5  7  2  0
  4  8  1  0
  8  9  1  0
  9 10  1  0
 10 11  2  0
 12 10  1  1
 12 13  1  0
 13 14  1  0
 14 15  1  0
 15 16  2  0
 16 17  1  0
 17 18  2  0
 18 19  1  0
 19 20  2  0
  9 21  1  0
 21  2  1  0
 20 12  1  0
 20 15  1  0
M  END
>  <alias>  (38) 
None

>  <Experiment code>  (38) 
nan

>  <CrystalformSites upload name>  (38) 
nan

>  <inchikey>  (38) 
SSKNNSPYZGBIMN-LOWVWBTDSA-N

>  <Crystalforms upload name>  (38) 
nan

>  <Quatassemblies upload name>  (38) 
nan

>  <ConformerSites alias>  (38) 
nan

>  <ConformerSites short tag>  (38) 
nan

>  <Crystalforms short tag>  (38) 
nan

>  <Centroid res>  (38) 
nan

>  <Quatassemblies short tag>  (38) 
nan

>  <observation_longname>  (38) 
nan

>  <name>  (38) 
SSKNNSPYZGBIMN-LOWVWBTDSA-N

>  <CanonSites upload name>  (38) 
nan

>  <tags>  (38) 
[]

>  <energy_score>  (38) 
137.994937

>  <original SMILES>  (38) 
C[C@H]1C[C@@H](C(N)=O)CN(C(=O)[C@H]2CSc3ccccc32)C1

>  <ref_mols>  (38) 
A4386a

>  <Pose>  (38) 
nan

>  <distance_score>  (38) 
1.467579

>  <ConformerSites upload name>  (38) 
nan

>  <HIPPO Pose ID>  (38) 
208166

>  <Crystalforms alias>  (38) 
nan

>  <original ID>  (38) 
SSKNNSPYZGBIMN-LOWVWBTDSA-N

>  <CanonSites alias>  (38) 
nan

>  <CrystalformSites alias>  (38) 
nan

>  <ref_pdb>  (38) 
A4386a

>  <CanonSites short tag>  (38) 
nan

>  <Quatassemblies alias>  (38) 
nan

>  <HIPPO Compound ID>  (38) 
122847

>  <CrystalformSites short tag>  (38) 
nan

$$$$
DPTOBIYTNLZBMB-NTZNESFSSA-N
     RDKit          3D

 21 23  0  0  0  0  0  0  0  0999 V2000
    7.6100   16.2743   23.4495 C   0  0  0  0  0  0  0  0  0  0  0  0
    8.8608   15.3716   23.6082 C   0  0  2  0  0  0  0  0  0  0  0  0
   10.2175   16.1080   23.7309 C   0  0  0  0  0  0  0  0  0  0  0  0
   10.6729   16.5942   22.3726 C   0  0  0  0  0  0  0  0  0  0  0  0
   10.5036   15.4186   21.4383 C   0  0  2  0  0  0  0  0  0  0  0  0
   10.6237   15.8028   19.9570 C   0  0  0  0  0  0  0  0  0  0  0  0
   10.9424   14.6399   19.1710 N   0  0  0  0  0  0  0  0  0  0  0  0
   10.4876   16.9449   19.6360 O   0  0  0  0  0  0  0  0  0  0  0  0
    9.1172   14.8430   21.7011 C   0  0  0  0  0  0  0  0  0  0  0  0
    8.9517   13.9881   22.9169 N   0  0  0  0  0  0  0  0  0  0  0  0
    7.8660   13.1611   23.3312 C   0  0  0  0  0  0  0  0  0  0  0  0
    6.7745   13.0117   22.8554 O   0  0  0  0  0  0  0  0  0  0  0  0
    8.3411   12.3203   24.5229 C   0  0  2  0  0  0  0  0  0  0  0  0
    8.9895   11.0352   23.9848 C   0  0  0  0  0  0  0  0  0  0  0  0
    8.1340    9.5995   24.6786 S   0  0  0  0  0  0  0  0  0  0  0  0
    7.0222   10.5821   25.6231 C   0  0  0  0  0  0  0  0  0  0  0  0
    6.0195   10.1005   26.4518 C   0  0  0  0  0  0  0  0  0  0  0  0
    5.2387   11.0044   27.1706 C   0  0  0  0  0  0  0  0  0  0  0  0
    5.4586   12.3784   27.0420 C   0  0  0  0  0  0  0  0  0  0  0  0
    6.4590   12.8565   26.1938 C   0  0  0  0  0  0  0  0  0  0  0  0
    7.2402   11.9485   25.4808 C   0  0  0  0  0  0  0  0  0  0  0  0
  2  1  1  6
  2  3  1  0
  3  4  1  0
  4  5  1  0
  5  6  1  6
  6  7  1  0
  6  8  2  0
  5  9  1  0
  9 10  1  0
 10 11  1  0
 11 12  2  0
 13 11  1  6
 13 14  1  0
 14 15  1  0
 15 16  1  0
 16 17  2  0
 17 18  1  0
 18 19  2  0
 19 20  1  0
 20 21  2  0
 10  2  1  0
 21 13  1  0
 21 16  1  0
M  END
>  <alias>  (39) 
None

>  <Experiment code>  (39) 
nan

>  <CrystalformSites upload name>  (39) 
nan

>  <inchikey>  (39) 
DPTOBIYTNLZBMB-NTZNESFSSA-N

>  <Crystalforms upload name>  (39) 
nan

>  <Quatassemblies upload name>  (39) 
nan

>  <ConformerSites alias>  (39) 
nan

>  <ConformerSites short tag>  (39) 
nan

>  <Crystalforms short tag>  (39) 
nan

>  <Centroid res>  (39) 
nan

>  <Quatassemblies short tag>  (39) 
nan

>  <observation_longname>  (39) 
nan

>  <name>  (39) 
DPTOBIYTNLZBMB-NTZNESFSSA-N

>  <CanonSites upload name>  (39) 
nan

>  <tags>  (39) 
[]

>  <energy_score>  (39) 
91.197075

>  <original SMILES>  (39) 
C[C@@H]1CC[C@H](C(N)=O)CN1C(=O)[C@@H]1CSc2ccccc21

>  <ref_mols>  (39) 
A4386a

>  <Pose>  (39) 
nan

>  <distance_score>  (39) 
1.148319

>  <ConformerSites upload name>  (39) 
nan

>  <HIPPO Pose ID>  (39) 
208171

>  <Crystalforms alias>  (39) 
nan

>  <original ID>  (39) 
DPTOBIYTNLZBMB-NTZNESFSSA-N

>  <CanonSites alias>  (39) 
nan

>  <CrystalformSites alias>  (39) 
nan

>  <ref_pdb>  (39) 
A4386a

>  <CanonSites short tag>  (39) 
nan

>  <Quatassemblies alias>  (39) 
nan

>  <HIPPO Compound ID>  (39) 
122849

>  <CrystalformSites short tag>  (39) 
nan

$$$$
DPTOBIYTNLZBMB-GMXVVIOVSA-N
     RDKit          3D

 21 23  0  0  0  0  0  0  0  0999 V2000
   10.7022   14.7604   25.3961 C   0  0  0  0  0  0  0  0  0  0  0  0
   10.2486   15.2843   24.0063 C   0  0  1  0  0  0  0  0  0  0  0  0
   11.4374   14.9340   23.0787 C   0  0  0  0  0  0  0  0  0  0  0  0
   11.3265   15.6369   21.7499 C   0  0  0  0  0  0  0  0  0  0  0  0
    9.8799   15.6168   21.3014 C   0  0  2  0  0  0  0  0  0  0  0  0
    9.6891   16.7953   20.3393 C   0  0  0  0  0  0  0  0  0  0  0  0
   10.0257   16.4348   18.9782 N   0  0  0  0  0  0  0  0  0  0  0  0
    9.3743   17.8500   20.8113 O   0  0  0  0  0  0  0  0  0  0  0  0
    8.9561   15.7652   22.5234 C   0  0  0  0  0  0  0  0  0  0  0  0
    8.9228   14.5984   23.4922 N   0  0  0  0  0  0  0  0  0  0  0  0
    8.0434   14.3220   24.5972 C   0  0  0  0  0  0  0  0  0  0  0  0
    7.1715   14.9898   25.0864 O   0  0  0  0  0  0  0  0  0  0  0  0
    8.2796   12.8665   25.0976 C   0  0  2  0  0  0  0  0  0  0  0  0
    8.6571   11.9182   23.9469 C   0  0  0  0  0  0  0  0  0  0  0  0
    8.3284   10.2296   24.5053 S   0  0  0  0  0  0  0  0  0  0  0  0
    7.0732   10.8010   25.6046 C   0  0  0  0  0  0  0  0  0  0  0  0
    6.1422   10.0001   26.2466 C   0  0  0  0  0  0  0  0  0  0  0  0
    5.2466   10.5826   27.1389 C   0  0  0  0  0  0  0  0  0  0  0  0
    5.2928   11.9581   27.3749 C   0  0  0  0  0  0  0  0  0  0  0  0
    6.2355   12.7590   26.7230 C   0  0  0  0  0  0  0  0  0  0  0  0
    7.1217   12.1834   25.8145 C   0  0  0  0  0  0  0  0  0  0  0  0
  2  1  1  1
  2  3  1  0
  3  4  1  0
  4  5  1  0
  5  6  1  6
  6  7  1  0
  6  8  2  0
  5  9  1  0
  9 10  1  0
 10 11  1  0
 11 12  2  0
 13 11  1  6
 13 14  1  0
 14 15  1  0
 15 16  1  0
 16 17  2  0
 17 18  1  0
 18 19  2  0
 19 20  1  0
 20 21  2  0
 10  2  1  0
 21 13  1  0
 21 16  1  0
M  END
>  <alias>  (40) 
None

>  <Experiment code>  (40) 
nan

>  <CrystalformSites upload name>  (40) 
nan

>  <inchikey>  (40) 
DPTOBIYTNLZBMB-GMXVVIOVSA-N

>  <Crystalforms upload name>  (40) 
nan

>  <Quatassemblies upload name>  (40) 
nan

>  <ConformerSites alias>  (40) 
nan

>  <ConformerSites short tag>  (40) 
nan

>  <Crystalforms short tag>  (40) 
nan

>  <Centroid res>  (40) 
nan

>  <Quatassemblies short tag>  (40) 
nan

>  <observation_longname>  (40) 
nan

>  <name>  (40) 
DPTOBIYTNLZBMB-GMXVVIOVSA-N

>  <CanonSites upload name>  (40) 
nan

>  <tags>  (40) 
[]

>  <energy_score>  (40) 
120.224592

>  <original SMILES>  (40) 
C[C@H]1CC[C@H](C(N)=O)CN1C(=O)[C@@H]1CSc2ccccc21

>  <ref_mols>  (40) 
A4386a

>  <Pose>  (40) 
nan

>  <distance_score>  (40) 
1.359335

>  <ConformerSites upload name>  (40) 
nan

>  <HIPPO Pose ID>  (40) 
208172

>  <Crystalforms alias>  (40) 
nan

>  <original ID>  (40) 
DPTOBIYTNLZBMB-GMXVVIOVSA-N

>  <CanonSites alias>  (40) 
nan

>  <CrystalformSites alias>  (40) 
nan

>  <ref_pdb>  (40) 
A4386a

>  <CanonSites short tag>  (40) 
nan

>  <Quatassemblies alias>  (40) 
nan

>  <HIPPO Compound ID>  (40) 
122849

>  <CrystalformSites short tag>  (40) 
nan

$$$$
DPTOBIYTNLZBMB-NQBHXWOUSA-N
     RDKit          3D

 21 23  0  0  0  0  0  0  0  0999 V2000
    9.9036   16.3572   24.3577 C   0  0  0  0  0  0  0  0  0  0  0  0
   10.1175   15.0068   23.6634 C   0  0  2  0  0  0  0  0  0  0  0  0
   11.4763   14.7868   22.9925 C   0  0  0  0  0  0  0  0  0  0  0  0
   11.6291   15.6947   21.8114 C   0  0  0  0  0  0  0  0  0  0  0  0
   10.2645   15.9946   21.2446 C   0  0  1  0  0  0  0  0  0  0  0  0
   10.2383   15.9089   19.7022 C   0  0  0  0  0  0  0  0  0  0  0  0
   10.5726   14.6075   19.1974 N   0  0  0  0  0  0  0  0  0  0  0  0
   10.0238   16.9369   19.1269 O   0  0  0  0  0  0  0  0  0  0  0  0
    9.0571   15.3853   22.0025 C   0  0  0  0  0  0  0  0  0  0  0  0
    8.9725   14.2406   23.0264 N   0  0  0  0  0  0  0  0  0  0  0  0
    7.9663   13.9409   24.0203 C   0  0  0  0  0  0  0  0  0  0  0  0
    6.9925   14.5610   24.3555 O   0  0  0  0  0  0  0  0  0  0  0  0
    8.3338   12.6447   24.7980 C   0  0  2  0  0  0  0  0  0  0  0  0
    8.8025   11.5400   23.8488 C   0  0  0  0  0  0  0  0  0  0  0  0
    8.3636    9.9352   24.5490 S   0  0  0  0  0  0  0  0  0  0  0  0
    7.1217   10.6579   25.5665 C   0  0  0  0  0  0  0  0  0  0  0  0
    6.1605    9.9628   26.2834 C   0  0  0  0  0  0  0  0  0  0  0  0
    5.2938   10.6598   27.1214 C   0  0  0  0  0  0  0  0  0  0  0  0
    5.3975   12.0465   27.2305 C   0  0  0  0  0  0  0  0  0  0  0  0
    6.3608   12.7414   26.4951 C   0  0  0  0  0  0  0  0  0  0  0  0
    7.2123   12.0474   25.6340 C   0  0  0  0  0  0  0  0  0  0  0  0
  2  1  1  6
  2  3  1  0
  3  4  1  0
  4  5  1  0
  5  6  1  6
  6  7  1  0
  6  8  2  0
  5  9  1  0
  9 10  1  0
 10 11  1  0
 11 12  2  0
 13 11  1  6
 13 14  1  0
 14 15  1  0
 15 16  1  0
 16 17  2  0
 17 18  1  0
 18 19  2  0
 19 20  1  0
 20 21  2  0
 10  2  1  0
 21 13  1  0
 21 16  1  0
M  END
>  <alias>  (41) 
None

>  <Experiment code>  (41) 
nan

>  <CrystalformSites upload name>  (41) 
nan

>  <inchikey>  (41) 
DPTOBIYTNLZBMB-NQBHXWOUSA-N

>  <Crystalforms upload name>  (41) 
nan

>  <Quatassemblies upload name>  (41) 
nan

>  <ConformerSites alias>  (41) 
nan

>  <ConformerSites short tag>  (41) 
nan

>  <Crystalforms short tag>  (41) 
nan

>  <Centroid res>  (41) 
nan

>  <Quatassemblies short tag>  (41) 
nan

>  <observation_longname>  (41) 
nan

>  <name>  (41) 
DPTOBIYTNLZBMB-NQBHXWOUSA-N

>  <CanonSites upload name>  (41) 
nan

>  <tags>  (41) 
[]

>  <energy_score>  (41) 
127.576743

>  <original SMILES>  (41) 
C[C@@H]1CC[C@@H](C(N)=O)CN1C(=O)[C@@H]1CSc2ccccc21

>  <ref_mols>  (41) 
A4386a

>  <Pose>  (41) 
nan

>  <distance_score>  (41) 
1.092215

>  <ConformerSites upload name>  (41) 
nan

>  <HIPPO Pose ID>  (41) 
208173

>  <Crystalforms alias>  (41) 
nan

>  <original ID>  (41) 
DPTOBIYTNLZBMB-NQBHXWOUSA-N

>  <CanonSites alias>  (41) 
nan

>  <CrystalformSites alias>  (41) 
nan

>  <ref_pdb>  (41) 
A4386a

>  <CanonSites short tag>  (41) 
nan

>  <Quatassemblies alias>  (41) 
nan

>  <HIPPO Compound ID>  (41) 
122849

>  <CrystalformSites short tag>  (41) 
nan

$$$$
DPTOBIYTNLZBMB-GMXVVIOVSA-N
     RDKit          3D

 21 23  0  0  0  0  0  0  0  0999 V2000
   10.8151   14.3614   24.7631 C   0  0  0  0  0  0  0  0  0  0  0  0
   10.1272   14.9009   23.4772 C   0  0  1  0  0  0  0  0  0  0  0  0
   11.3356   15.2854   22.5706 C   0  0  0  0  0  0  0  0  0  0  0  0
   10.8913   16.4106   21.6598 C   0  0  0  0  0  0  0  0  0  0  0  0
    9.4283   16.1681   21.3561 C   0  0  2  0  0  0  0  0  0  0  0  0
    8.4711   17.2083   21.9548 C   0  0  0  0  0  0  0  0  0  0  0  0
    8.6066   18.4854   21.2872 N   0  0  0  0  0  0  0  0  0  0  0  0
    7.7939   16.8841   22.8878 O   0  0  0  0  0  0  0  0  0  0  0  0
    9.0995   14.7060   21.7314 C   0  0  0  0  0  0  0  0  0  0  0  0
    9.0445   13.8523   22.9786 N   0  0  0  0  0  0  0  0  0  0  0  0
    8.0046   13.7039   23.9708 C   0  0  0  0  0  0  0  0  0  0  0  0
    6.9631   14.2894   24.1034 O   0  0  0  0  0  0  0  0  0  0  0  0
    8.3209   12.5071   24.9143 C   0  0  2  0  0  0  0  0  0  0  0  0
    8.7787   11.2970   24.0745 C   0  0  0  0  0  0  0  0  0  0  0  0
    8.1141    9.7744   24.7829 S   0  0  0  0  0  0  0  0  0  0  0  0
    6.9371   10.6511   25.7504 C   0  0  0  0  0  0  0  0  0  0  0  0
    5.9232   10.0714   26.5000 C   0  0  0  0  0  0  0  0  0  0  0  0
    5.1101   10.8833   27.2876 C   0  0  0  0  0  0  0  0  0  0  0  0
    5.3167   12.2638   27.3131 C   0  0  0  0  0  0  0  0  0  0  0  0
    6.3359   12.8391   26.5511 C   0  0  0  0  0  0  0  0  0  0  0  0
    7.1413   12.0297   25.7491 C   0  0  0  0  0  0  0  0  0  0  0  0
  2  1  1  1
  2  3  1  0
  3  4  1  0
  4  5  1  0
  5  6  1  1
  6  7  1  0
  6  8  2  0
  5  9  1  0
  9 10  1  0
 10 11  1  0
 11 12  2  0
 13 11  1  6
 13 14  1  0
 14 15  1  0
 15 16  1  0
 16 17  2  0
 17 18  1  0
 18 19  2  0
 19 20  1  0
 20 21  2  0
 10  2  1  0
 21 13  1  0
 21 16  1  0
M  END
>  <alias>  (42) 
None

>  <Experiment code>  (42) 
nan

>  <CrystalformSites upload name>  (42) 
nan

>  <inchikey>  (42) 
DPTOBIYTNLZBMB-GMXVVIOVSA-N

>  <Crystalforms upload name>  (42) 
nan

>  <Quatassemblies upload name>  (42) 
nan

>  <ConformerSites alias>  (42) 
nan

>  <ConformerSites short tag>  (42) 
nan

>  <Crystalforms short tag>  (42) 
nan

>  <Centroid res>  (42) 
nan

>  <Quatassemblies short tag>  (42) 
nan

>  <observation_longname>  (42) 
nan

>  <name>  (42) 
DPTOBIYTNLZBMB-GMXVVIOVSA-N

>  <CanonSites upload name>  (42) 
nan

>  <tags>  (42) 
[]

>  <energy_score>  (42) 
235.488843

>  <original SMILES>  (42) 
C[C@H]1CC[C@H](C(N)=O)CN1C(=O)[C@@H]1CSc2ccccc21

>  <ref_mols>  (42) 
A4386a

>  <Pose>  (42) 
nan

>  <distance_score>  (42) 
1.930361

>  <ConformerSites upload name>  (42) 
nan

>  <HIPPO Pose ID>  (42) 
208174

>  <Crystalforms alias>  (42) 
nan

>  <original ID>  (42) 
DPTOBIYTNLZBMB-GMXVVIOVSA-N

>  <CanonSites alias>  (42) 
nan

>  <CrystalformSites alias>  (42) 
nan

>  <ref_pdb>  (42) 
A4386a

>  <CanonSites short tag>  (42) 
nan

>  <Quatassemblies alias>  (42) 
nan

>  <HIPPO Compound ID>  (42) 
122849

>  <CrystalformSites short tag>  (42) 
nan

$$$$
DPTOBIYTNLZBMB-MDZLAQPJSA-N
     RDKit          3D

 21 23  0  0  0  0  0  0  0  0999 V2000
   10.4996   15.5812   24.7883 C   0  0  0  0  0  0  0  0  0  0  0  0
   10.0281   14.5272   23.7479 C   0  0  2  0  0  0  0  0  0  0  0  0
   11.0846   14.1470   22.7008 C   0  0  0  0  0  0  0  0  0  0  0  0
   11.1624   15.1760   21.6031 C   0  0  0  0  0  0  0  0  0  0  0  0
    9.7360   15.5501   21.2566 C   0  0  2  0  0  0  0  0  0  0  0  0
    9.7473   16.8201   20.4092 C   0  0  0  0  0  0  0  0  0  0  0  0
   10.0503   16.5340   19.0195 N   0  0  0  0  0  0  0  0  0  0  0  0
    9.5840   17.8636   20.9722 O   0  0  0  0  0  0  0  0  0  0  0  0
    8.9532   15.7528   22.5724 C   0  0  0  0  0  0  0  0  0  0  0  0
    8.5442   14.4799   23.2741 N   0  0  0  0  0  0  0  0  0  0  0  0
    7.6735   14.2662   24.3986 C   0  0  0  0  0  0  0  0  0  0  0  0
    7.1235   15.0552   25.1204 O   0  0  0  0  0  0  0  0  0  0  0  0
    7.3936   12.7416   24.5418 C   0  0  1  0  0  0  0  0  0  0  0  0
    8.5687   11.7638   24.4664 C   0  0  0  0  0  0  0  0  0  0  0  0
    7.9162   10.1298   24.9041 S   0  0  0  0  0  0  0  0  0  0  0  0
    6.6606   10.8628   25.9081 C   0  0  0  0  0  0  0  0  0  0  0  0
    5.8405   10.1794   26.7937 C   0  0  0  0  0  0  0  0  0  0  0  0
    4.9152   10.8969   27.5451 C   0  0  0  0  0  0  0  0  0  0  0  0
    4.7977   12.2778   27.3727 C   0  0  0  0  0  0  0  0  0  0  0  0
    5.5964   12.9514   26.4423 C   0  0  0  0  0  0  0  0  0  0  0  0
    6.5495   12.2476   25.7118 C   0  0  0  0  0  0  0  0  0  0  0  0
  2  1  1  6
  2  3  1  0
  3  4  1  0
  4  5  1  0
  5  6  1  1
  6  7  1  0
  6  8  2  0
  5  9  1  0
  9 10  1  0
 10 11  1  0
 11 12  2  0
 13 11  1  1
 13 14  1  0
 14 15  1  0
 15 16  1  0
 16 17  2  0
 17 18  1  0
 18 19  2  0
 19 20  1  0
 20 21  2  0
 10  2  1  0
 21 13  1  0
 21 16  1  0
M  END
>  <alias>  (43) 
None

>  <Experiment code>  (43) 
nan

>  <CrystalformSites upload name>  (43) 
nan

>  <inchikey>  (43) 
DPTOBIYTNLZBMB-MDZLAQPJSA-N

>  <Crystalforms upload name>  (43) 
nan

>  <Quatassemblies upload name>  (43) 
nan

>  <ConformerSites alias>  (43) 
nan

>  <ConformerSites short tag>  (43) 
nan

>  <Crystalforms short tag>  (43) 
nan

>  <Centroid res>  (43) 
nan

>  <Quatassemblies short tag>  (43) 
nan

>  <observation_longname>  (43) 
nan

>  <name>  (43) 
DPTOBIYTNLZBMB-MDZLAQPJSA-N

>  <CanonSites upload name>  (43) 
nan

>  <tags>  (43) 
[]

>  <energy_score>  (43) 
147.874025

>  <original SMILES>  (43) 
C[C@@H]1CC[C@H](C(N)=O)CN1C(=O)[C@H]1CSc2ccccc21

>  <ref_mols>  (43) 
A4386a

>  <Pose>  (43) 
nan

>  <distance_score>  (43) 
1.618661

>  <ConformerSites upload name>  (43) 
nan

>  <HIPPO Pose ID>  (43) 
208175

>  <Crystalforms alias>  (43) 
nan

>  <original ID>  (43) 
DPTOBIYTNLZBMB-MDZLAQPJSA-N

>  <CanonSites alias>  (43) 
nan

>  <CrystalformSites alias>  (43) 
nan

>  <ref_pdb>  (43) 
A4386a

>  <CanonSites short tag>  (43) 
nan

>  <Quatassemblies alias>  (43) 
nan

>  <HIPPO Compound ID>  (43) 
122849

>  <CrystalformSites short tag>  (43) 
nan

$$$$
DPTOBIYTNLZBMB-GVXVVHGQSA-N
     RDKit          3D

 21 23  0  0  0  0  0  0  0  0999 V2000
    8.6612   14.7272   25.9047 C   0  0  0  0  0  0  0  0  0  0  0  0
    9.2734   15.0051   24.5121 C   0  0  1  0  0  0  0  0  0  0  0  0
   10.7953   14.8118   24.7023 C   0  0  0  0  0  0  0  0  0  0  0  0
   11.5048   15.4085   23.5154 C   0  0  0  0  0  0  0  0  0  0  0  0
   10.8253   14.8982   22.2647 C   0  0  2  0  0  0  0  0  0  0  0  0
   11.2816   15.6568   21.0184 C   0  0  0  0  0  0  0  0  0  0  0  0
   11.1133   14.8579   19.8209 N   0  0  0  0  0  0  0  0  0  0  0  0
   11.6640   16.7839   21.1573 O   0  0  0  0  0  0  0  0  0  0  0  0
    9.3267   15.1160   22.4876 C   0  0  0  0  0  0  0  0  0  0  0  0
    8.7062   14.0600   23.3579 N   0  0  0  0  0  0  0  0  0  0  0  0
    7.3446   13.7461   23.6057 C   0  0  0  0  0  0  0  0  0  0  0  0
    6.3383   14.3021   23.2547 O   0  0  0  0  0  0  0  0  0  0  0  0
    7.2398   12.4246   24.3571 C   0  0  1  0  0  0  0  0  0  0  0  0
    8.4534   11.4964   24.4271 C   0  0  0  0  0  0  0  0  0  0  0  0
    7.7979    9.9999   25.2336 S   0  0  0  0  0  0  0  0  0  0  0  0
    6.5581   10.9283   26.1018 C   0  0  0  0  0  0  0  0  0  0  0  0
    5.7414   10.4525   27.1147 C   0  0  0  0  0  0  0  0  0  0  0  0
    4.8240   11.3254   27.6956 C   0  0  0  0  0  0  0  0  0  0  0  0
    4.7096   12.6419   27.2315 C   0  0  0  0  0  0  0  0  0  0  0  0
    5.5003   13.0976   26.1733 C   0  0  0  0  0  0  0  0  0  0  0  0
    6.4383   12.2393   25.6167 C   0  0  0  0  0  0  0  0  0  0  0  0
  2  1  1  1
  2  3  1  0
  3  4  1  0
  4  5  1  0
  5  6  1  6
  6  7  1  0
  6  8  2  0
  5  9  1  0
  9 10  1  0
 10 11  1  0
 11 12  2  0
 13 11  1  1
 13 14  1  0
 14 15  1  0
 15 16  1  0
 16 17  2  0
 17 18  1  0
 18 19  2  0
 19 20  1  0
 20 21  2  0
 10  2  1  0
 21 13  1  0
 21 16  1  0
M  END
>  <alias>  (44) 
None

>  <Experiment code>  (44) 
nan

>  <CrystalformSites upload name>  (44) 
nan

>  <inchikey>  (44) 
DPTOBIYTNLZBMB-GVXVVHGQSA-N

>  <Crystalforms upload name>  (44) 
nan

>  <Quatassemblies upload name>  (44) 
nan

>  <ConformerSites alias>  (44) 
nan

>  <ConformerSites short tag>  (44) 
nan

>  <Crystalforms short tag>  (44) 
nan

>  <Centroid res>  (44) 
nan

>  <Quatassemblies short tag>  (44) 
nan

>  <observation_longname>  (44) 
nan

>  <name>  (44) 
DPTOBIYTNLZBMB-GVXVVHGQSA-N

>  <CanonSites upload name>  (44) 
nan

>  <tags>  (44) 
[]

>  <energy_score>  (44) 
150.029393

>  <original SMILES>  (44) 
C[C@H]1CC[C@H](C(N)=O)CN1C(=O)[C@H]1CSc2ccccc21

>  <ref_mols>  (44) 
A4386a

>  <Pose>  (44) 
nan

>  <distance_score>  (44) 
1.712346

>  <ConformerSites upload name>  (44) 
nan

>  <HIPPO Pose ID>  (44) 
208176

>  <Crystalforms alias>  (44) 
nan

>  <original ID>  (44) 
DPTOBIYTNLZBMB-GVXVVHGQSA-N

>  <CanonSites alias>  (44) 
nan

>  <CrystalformSites alias>  (44) 
nan

>  <ref_pdb>  (44) 
A4386a

>  <CanonSites short tag>  (44) 
nan

>  <Quatassemblies alias>  (44) 
nan

>  <HIPPO Compound ID>  (44) 
122849

>  <CrystalformSites short tag>  (44) 
nan

$$$$
DPTOBIYTNLZBMB-WZRBSPASSA-N
     RDKit          3D

 21 23  0  0  0  0  0  0  0  0999 V2000
   11.0539   14.7503   25.3745 C   0  0  0  0  0  0  0  0  0  0  0  0
   10.2560   14.2873   24.1288 C   0  0  2  0  0  0  0  0  0  0  0  0
   11.0793   14.2167   22.8334 C   0  0  0  0  0  0  0  0  0  0  0  0
   11.2387   15.5799   22.2176 C   0  0  0  0  0  0  0  0  0  0  0  0
    9.8731   16.2334   22.2754 C   0  0  1  0  0  0  0  0  0  0  0  0
    9.0448   15.7586   21.0518 C   0  0  0  0  0  0  0  0  0  0  0  0
    8.0090   14.8002   21.3866 N   0  0  0  0  0  0  0  0  0  0  0  0
    9.4085   16.1761   19.9859 O   0  0  0  0  0  0  0  0  0  0  0  0
    9.2994   16.0187   23.6841 C   0  0  0  0  0  0  0  0  0  0  0  0
    8.7305   14.6431   24.0040 N   0  0  0  0  0  0  0  0  0  0  0  0
    8.0119   14.1656   25.1689 C   0  0  0  0  0  0  0  0  0  0  0  0
    7.7658   14.7127   26.2113 O   0  0  0  0  0  0  0  0  0  0  0  0
    7.4237   12.7441   24.8725 C   0  0  1  0  0  0  0  0  0  0  0  0
    8.4654   11.6441   24.6547 C   0  0  0  0  0  0  0  0  0  0  0  0
    7.7137   10.0443   25.0170 S   0  0  0  0  0  0  0  0  0  0  0  0
    6.4964   10.7974   26.0428 C   0  0  0  0  0  0  0  0  0  0  0  0
    5.6265   10.1196   26.8840 C   0  0  0  0  0  0  0  0  0  0  0  0
    4.7131   10.8494   27.6392 C   0  0  0  0  0  0  0  0  0  0  0  0
    4.6566   12.2395   27.5156 C   0  0  0  0  0  0  0  0  0  0  0  0
    5.5193   12.9109   26.6449 C   0  0  0  0  0  0  0  0  0  0  0  0
    6.4696   12.1911   25.9237 C   0  0  0  0  0  0  0  0  0  0  0  0
  2  1  1  1
  2  3  1  0
  3  4  1  0
  4  5  1  0
  5  6  1  6
  6  7  1  0
  6  8  2  0
  5  9  1  0
  9 10  1  0
 10 11  1  0
 11 12  2  0
 13 11  1  1
 13 14  1  0
 14 15  1  0
 15 16  1  0
 16 17  2  0
 17 18  1  0
 18 19  2  0
 19 20  1  0
 20 21  2  0
 10  2  1  0
 21 13  1  0
 21 16  1  0
M  END
>  <alias>  (45) 
None

>  <Experiment code>  (45) 
nan

>  <CrystalformSites upload name>  (45) 
nan

>  <inchikey>  (45) 
DPTOBIYTNLZBMB-WZRBSPASSA-N

>  <Crystalforms upload name>  (45) 
nan

>  <Quatassemblies upload name>  (45) 
nan

>  <ConformerSites alias>  (45) 
nan

>  <ConformerSites short tag>  (45) 
nan

>  <Crystalforms short tag>  (45) 
nan

>  <Centroid res>  (45) 
nan

>  <Quatassemblies short tag>  (45) 
nan

>  <observation_longname>  (45) 
nan

>  <name>  (45) 
DPTOBIYTNLZBMB-WZRBSPASSA-N

>  <CanonSites upload name>  (45) 
nan

>  <tags>  (45) 
[]

>  <energy_score>  (45) 
112.731044

>  <original SMILES>  (45) 
C[C@@H]1CC[C@@H](C(N)=O)CN1C(=O)[C@H]1CSc2ccccc21

>  <ref_mols>  (45) 
A4386a

>  <Pose>  (45) 
nan

>  <distance_score>  (45) 
1.995162

>  <ConformerSites upload name>  (45) 
nan

>  <HIPPO Pose ID>  (45) 
208177

>  <Crystalforms alias>  (45) 
nan

>  <original ID>  (45) 
DPTOBIYTNLZBMB-WZRBSPASSA-N

>  <CanonSites alias>  (45) 
nan

>  <CrystalformSites alias>  (45) 
nan

>  <ref_pdb>  (45) 
A4386a

>  <CanonSites short tag>  (45) 
nan

>  <Quatassemblies alias>  (45) 
nan

>  <HIPPO Compound ID>  (45) 
122849

>  <CrystalformSites short tag>  (45) 
nan

$$$$
DPTOBIYTNLZBMB-LOWVWBTDSA-N
     RDKit          3D

 21 23  0  0  0  0  0  0  0  0999 V2000
    9.2522   15.2254   25.2584 C   0  0  0  0  0  0  0  0  0  0  0  0
    9.5605   15.4838   23.7586 C   0  0  1  0  0  0  0  0  0  0  0  0
   11.0604   15.1804   23.5581 C   0  0  0  0  0  0  0  0  0  0  0  0
   11.4521   15.2538   22.0936 C   0  0  0  0  0  0  0  0  0  0  0  0
   10.4092   16.0356   21.3193 C   0  0  1  0  0  0  0  0  0  0  0  0
   10.4777   15.9802   19.7699 C   0  0  0  0  0  0  0  0  0  0  0  0
   10.6220   14.6614   19.2206 N   0  0  0  0  0  0  0  0  0  0  0  0
   10.4196   17.0470   19.2296 O   0  0  0  0  0  0  0  0  0  0  0  0
    8.9901   15.7997   21.8479 C   0  0  0  0  0  0  0  0  0  0  0  0
    8.7098   14.6218   22.7440 N   0  0  0  0  0  0  0  0  0  0  0  0
    7.5015   14.1894   23.3575 C   0  0  0  0  0  0  0  0  0  0  0  0
    6.4147   14.7043   23.3916 O   0  0  0  0  0  0  0  0  0  0  0  0
    7.6554   12.7931   23.9640 C   0  0  1  0  0  0  0  0  0  0  0  0
    8.9582   11.9963   23.9091 C   0  0  0  0  0  0  0  0  0  0  0  0
    8.4754   10.3444   24.5370 S   0  0  0  0  0  0  0  0  0  0  0  0
    7.1665   11.0352   25.5184 C   0  0  0  0  0  0  0  0  0  0  0  0
    6.3814   10.3570   26.4337 C   0  0  0  0  0  0  0  0  0  0  0  0
    5.4363   11.0714   27.1680 C   0  0  0  0  0  0  0  0  0  0  0  0
    5.2688   12.4441   26.9523 C   0  0  0  0  0  0  0  0  0  0  0  0
    6.0104   13.1071   25.9697 C   0  0  0  0  0  0  0  0  0  0  0  0
    6.9500   12.3924   25.2381 C   0  0  0  0  0  0  0  0  0  0  0  0
  2  1  1  1
  2  3  1  0
  3  4  1  0
  4  5  1  0
  5  6  1  6
  6  7  1  0
  6  8  2  0
  5  9  1  0
  9 10  1  0
 10 11  1  0
 11 12  2  0
 13 11  1  1
 13 14  1  0
 14 15  1  0
 15 16  1  0
 16 17  2  0
 17 18  1  0
 18 19  2  0
 19 20  1  0
 20 21  2  0
 10  2  1  0
 21 13  1  0
 21 16  1  0
M  END
>  <alias>  (46) 
None

>  <Experiment code>  (46) 
nan

>  <CrystalformSites upload name>  (46) 
nan

>  <inchikey>  (46) 
DPTOBIYTNLZBMB-LOWVWBTDSA-N

>  <Crystalforms upload name>  (46) 
nan

>  <Quatassemblies upload name>  (46) 
nan

>  <ConformerSites alias>  (46) 
nan

>  <ConformerSites short tag>  (46) 
nan

>  <Crystalforms short tag>  (46) 
nan

>  <Centroid res>  (46) 
nan

>  <Quatassemblies short tag>  (46) 
nan

>  <observation_longname>  (46) 
nan

>  <name>  (46) 
DPTOBIYTNLZBMB-LOWVWBTDSA-N

>  <CanonSites upload name>  (46) 
nan

>  <tags>  (46) 
[]

>  <energy_score>  (46) 
122.978782

>  <original SMILES>  (46) 
C[C@H]1CC[C@@H](C(N)=O)CN1C(=O)[C@H]1CSc2ccccc21

>  <ref_mols>  (46) 
A4386a

>  <Pose>  (46) 
nan

>  <distance_score>  (46) 
1.228246

>  <ConformerSites upload name>  (46) 
nan

>  <HIPPO Pose ID>  (46) 
208178

>  <Crystalforms alias>  (46) 
nan

>  <original ID>  (46) 
DPTOBIYTNLZBMB-LOWVWBTDSA-N

>  <CanonSites alias>  (46) 
nan

>  <CrystalformSites alias>  (46) 
nan

>  <ref_pdb>  (46) 
A4386a

>  <CanonSites short tag>  (46) 
nan

>  <Quatassemblies alias>  (46) 
nan

>  <HIPPO Compound ID>  (46) 
122849

>  <CrystalformSites short tag>  (46) 
nan

$$$$
KMYHYEWKIDCDGG-ABAIWWIYSA-N
     RDKit          3D

 21 23  0  0  0  0  0  0  0  0999 V2000
   11.1866   14.5436   19.2625 N   0  0  0  0  0  0  0  0  0  0  0  0
   10.6688   15.8634   19.5573 C   0  0  0  0  0  0  0  0  0  0  0  0
   10.6099   16.8479   18.8749 O   0  0  0  0  0  0  0  0  0  0  0  0
   10.2061   16.0535   21.0485 C   0  0  2  0  0  0  0  0  0  0  0  0
    9.8063   17.3627   21.2340 F   0  0  0  0  0  0  0  0  0  0  0  0
   11.2896   15.8410   22.0871 C   0  0  0  0  0  0  0  0  0  0  0  0
   10.6176   16.0083   23.4489 C   0  0  0  0  0  0  0  0  0  0  0  0
    9.1203   15.6471   23.3646 C   0  0  0  0  0  0  0  0  0  0  0  0
    8.9573   14.3109   22.6671 N   0  0  0  0  0  0  0  0  0  0  0  0
    7.8862   13.5687   23.2634 C   0  0  0  0  0  0  0  0  0  0  0  0
    6.7176   13.5326   22.9918 O   0  0  0  0  0  0  0  0  0  0  0  0
    8.4558   12.7380   24.4268 C   0  0  2  0  0  0  0  0  0  0  0  0
    9.3264   11.5981   23.8832 C   0  0  0  0  0  0  0  0  0  0  0  0
    8.5633   10.0044   24.2885 S   0  0  0  0  0  0  0  0  0  0  0  0
    7.3560   10.7464   25.3316 C   0  0  0  0  0  0  0  0  0  0  0  0
    6.4177   10.0664   26.0926 C   0  0  0  0  0  0  0  0  0  0  0  0
    5.5380   10.7895   26.8970 C   0  0  0  0  0  0  0  0  0  0  0  0
    5.5981   12.1855   26.9208 C   0  0  0  0  0  0  0  0  0  0  0  0
    6.5352   12.8652   26.1393 C   0  0  0  0  0  0  0  0  0  0  0  0
    7.4153   12.1370   25.3398 C   0  0  0  0  0  0  0  0  0  0  0  0
    8.9804   15.2018   21.4311 C   0  0  0  0  0  0  0  0  0  0  0  0
  1  2  1  0
  2  3  2  0
  2  4  1  0
  4  5  1  6
  4  6  1  0
  6  7  1  0
  7  8  1  0
  8  9  1  0
  9 10  1  0
 10 11  2  0
 12 10  1  6
 12 13  1  0
 13 14  1  0
 14 15  1  0
 15 16  2  0
 16 17  1  0
 17 18  2  0
 18 19  1  0
 19 20  2  0
  9 21  1  0
 21  4  1  0
 20 12  1  0
 20 15  1  0
M  END
>  <alias>  (47) 
None

>  <Experiment code>  (47) 
nan

>  <CrystalformSites upload name>  (47) 
nan

>  <inchikey>  (47) 
KMYHYEWKIDCDGG-ABAIWWIYSA-N

>  <Crystalforms upload name>  (47) 
nan

>  <Quatassemblies upload name>  (47) 
nan

>  <ConformerSites alias>  (47) 
nan

>  <ConformerSites short tag>  (47) 
nan

>  <Crystalforms short tag>  (47) 
nan

>  <Centroid res>  (47) 
nan

>  <Quatassemblies short tag>  (47) 
nan

>  <observation_longname>  (47) 
nan

>  <name>  (47) 
KMYHYEWKIDCDGG-ABAIWWIYSA-N

>  <CanonSites upload name>  (47) 
nan

>  <tags>  (47) 
[]

>  <energy_score>  (47) 
185.176307

>  <original SMILES>  (47) 
NC(=O)[C@]1(F)CCCN(C(=O)[C@@H]2CSc3ccccc32)C1

>  <ref_mols>  (47) 
A4386a

>  <Pose>  (47) 
nan

>  <distance_score>  (47) 
1.025673

>  <ConformerSites upload name>  (47) 
nan

>  <HIPPO Pose ID>  (47) 
208179

>  <Crystalforms alias>  (47) 
nan

>  <original ID>  (47) 
KMYHYEWKIDCDGG-ABAIWWIYSA-N

>  <CanonSites alias>  (47) 
nan

>  <CrystalformSites alias>  (47) 
nan

>  <ref_pdb>  (47) 
A4386a

>  <CanonSites short tag>  (47) 
nan

>  <Quatassemblies alias>  (47) 
nan

>  <HIPPO Compound ID>  (47) 
122850

>  <CrystalformSites short tag>  (47) 
nan

$$$$
KMYHYEWKIDCDGG-IAQYHMDHSA-N
     RDKit          3D

 21 23  0  0  0  0  0  0  0  0999 V2000
   11.9344   15.4671   19.2821 N   0  0  0  0  0  0  0  0  0  0  0  0
   10.6759   15.9028   19.8426 C   0  0  0  0  0  0  0  0  0  0  0  0
    9.7788   16.5282   19.3539 O   0  0  0  0  0  0  0  0  0  0  0  0
   10.6012   15.4406   21.3048 C   0  0  1  0  0  0  0  0  0  0  0  0
   11.5708   14.4955   21.5484 F   0  0  0  0  0  0  0  0  0  0  0  0
   10.8462   16.5762   22.2649 C   0  0  0  0  0  0  0  0  0  0  0  0
   10.3772   16.0882   23.6235 C   0  0  0  0  0  0  0  0  0  0  0  0
    8.9955   15.4217   23.4843 C   0  0  0  0  0  0  0  0  0  0  0  0
    9.0352   14.0369   22.8466 N   0  0  0  0  0  0  0  0  0  0  0  0
    7.9268   13.2568   23.2944 C   0  0  0  0  0  0  0  0  0  0  0  0
    6.8261   13.1278   22.8317 O   0  0  0  0  0  0  0  0  0  0  0  0
    8.3843   12.4366   24.5057 C   0  0  2  0  0  0  0  0  0  0  0  0
    9.0689   11.1631   23.9784 C   0  0  0  0  0  0  0  0  0  0  0  0
    8.2157    9.7042   24.6303 S   0  0  0  0  0  0  0  0  0  0  0  0
    7.0813   10.6617   25.5732 C   0  0  0  0  0  0  0  0  0  0  0  0
    6.0826   10.1524   26.3904 C   0  0  0  0  0  0  0  0  0  0  0  0
    5.2782   11.0350   27.1094 C   0  0  0  0  0  0  0  0  0  0  0  0
    5.4717   12.4143   26.9924 C   0  0  0  0  0  0  0  0  0  0  0  0
    6.4700   12.9198   26.1566 C   0  0  0  0  0  0  0  0  0  0  0  0
    7.2756   12.0341   25.4434 C   0  0  0  0  0  0  0  0  0  0  0  0
    9.2181   14.8567   21.5948 C   0  0  0  0  0  0  0  0  0  0  0  0
  1  2  1  0
  2  3  2  0
  2  4  1  0
  4  5  1  6
  4  6  1  0
  6  7  1  0
  7  8  1  0
  8  9  1  0
  9 10  1  0
 10 11  2  0
 12 10  1  6
 12 13  1  0
 13 14  1  0
 14 15  1  0
 15 16  2  0
 16 17  1  0
 17 18  2  0
 18 19  1  0
 19 20  2  0
  9 21  1  0
 21  4  1  0
 20 12  1  0
 20 15  1  0
M  END
>  <alias>  (48) 
None

>  <Experiment code>  (48) 
nan

>  <CrystalformSites upload name>  (48) 
nan

>  <inchikey>  (48) 
KMYHYEWKIDCDGG-IAQYHMDHSA-N

>  <Crystalforms upload name>  (48) 
nan

>  <Quatassemblies upload name>  (48) 
nan

>  <ConformerSites alias>  (48) 
nan

>  <ConformerSites short tag>  (48) 
nan

>  <Crystalforms short tag>  (48) 
nan

>  <Centroid res>  (48) 
nan

>  <Quatassemblies short tag>  (48) 
nan

>  <observation_longname>  (48) 
nan

>  <name>  (48) 
KMYHYEWKIDCDGG-IAQYHMDHSA-N

>  <CanonSites upload name>  (48) 
nan

>  <tags>  (48) 
[]

>  <energy_score>  (48) 
161.013407

>  <original SMILES>  (48) 
NC(=O)[C@@]1(F)CCCN(C(=O)[C@@H]2CSc3ccccc32)C1

>  <ref_mols>  (48) 
A4386a

>  <Pose>  (48) 
nan

>  <distance_score>  (48) 
1.142967

>  <ConformerSites upload name>  (48) 
nan

>  <HIPPO Pose ID>  (48) 
208180

>  <Crystalforms alias>  (48) 
nan

>  <original ID>  (48) 
KMYHYEWKIDCDGG-IAQYHMDHSA-N

>  <CanonSites alias>  (48) 
nan

>  <CrystalformSites alias>  (48) 
nan

>  <ref_pdb>  (48) 
A4386a

>  <CanonSites short tag>  (48) 
nan

>  <Quatassemblies alias>  (48) 
nan

>  <HIPPO Compound ID>  (48) 
122850

>  <CrystalformSites short tag>  (48) 
nan

$$$$
KMYHYEWKIDCDGG-NHYWBVRUSA-N
     RDKit          3D

 21 23  0  0  0  0  0  0  0  0999 V2000
   10.4590   14.9175   19.6588 N   0  0  0  0  0  0  0  0  0  0  0  0
   10.2819   15.9908   20.6233 C   0  0  0  0  0  0  0  0  0  0  0  0
   10.0417   17.1563   20.4587 O   0  0  0  0  0  0  0  0  0  0  0  0
   10.4724   15.5972   22.1357 C   0  0  2  0  0  0  0  0  0  0  0  0
   11.3469   16.5005   22.7171 F   0  0  0  0  0  0  0  0  0  0  0  0
   11.0680   14.2485   22.4854 C   0  0  0  0  0  0  0  0  0  0  0  0
   11.0805   14.1475   23.9978 C   0  0  0  0  0  0  0  0  0  0  0  0
    9.7768   14.7490   24.5335 C   0  0  0  0  0  0  0  0  0  0  0  0
    8.5852   14.4973   23.6042 N   0  0  0  0  0  0  0  0  0  0  0  0
    7.3987   14.2987   24.3708 C   0  0  0  0  0  0  0  0  0  0  0  0
    6.5751   15.0860   24.7513 O   0  0  0  0  0  0  0  0  0  0  0  0
    7.1960   12.7831   24.6015 C   0  0  1  0  0  0  0  0  0  0  0  0
    8.4053   11.8442   24.4873 C   0  0  0  0  0  0  0  0  0  0  0  0
    7.8141   10.2000   24.9800 S   0  0  0  0  0  0  0  0  0  0  0  0
    6.5697   10.9147   26.0154 C   0  0  0  0  0  0  0  0  0  0  0  0
    5.7905   10.2239   26.9308 C   0  0  0  0  0  0  0  0  0  0  0  0
    4.8896   10.9356   27.7172 C   0  0  0  0  0  0  0  0  0  0  0  0
    4.7601   12.3178   27.5560 C   0  0  0  0  0  0  0  0  0  0  0  0
    5.5136   12.9991   26.5945 C   0  0  0  0  0  0  0  0  0  0  0  0
    6.4287   12.2973   25.8175 C   0  0  0  0  0  0  0  0  0  0  0  0
    9.1360   15.7523   22.9201 C   0  0  0  0  0  0  0  0  0  0  0  0
  1  2  1  0
  2  3  2  0
  2  4  1  0
  4  5  1  1
  4  6  1  0
  6  7  1  0
  7  8  1  0
  8  9  1  0
  9 10  1  0
 10 11  2  0
 12 10  1  1
 12 13  1  0
 13 14  1  0
 14 15  1  0
 15 16  2  0
 16 17  1  0
 17 18  2  0
 18 19  1  0
 19 20  2  0
  9 21  1  0
 21  4  1  0
 20 12  1  0
 20 15  1  0
M  END
>  <alias>  (49) 
None

>  <Experiment code>  (49) 
nan

>  <CrystalformSites upload name>  (49) 
nan

>  <inchikey>  (49) 
KMYHYEWKIDCDGG-NHYWBVRUSA-N

>  <Crystalforms upload name>  (49) 
nan

>  <Quatassemblies upload name>  (49) 
nan

>  <ConformerSites alias>  (49) 
nan

>  <ConformerSites short tag>  (49) 
nan

>  <Crystalforms short tag>  (49) 
nan

>  <Centroid res>  (49) 
nan

>  <Quatassemblies short tag>  (49) 
nan

>  <observation_longname>  (49) 
nan

>  <name>  (49) 
KMYHYEWKIDCDGG-NHYWBVRUSA-N

>  <CanonSites upload name>  (49) 
nan

>  <tags>  (49) 
[]

>  <energy_score>  (49) 
-22.798863

>  <original SMILES>  (49) 
NC(=O)[C@]1(F)CCCN(C(=O)[C@H]2CSc3ccccc32)C1

>  <ref_mols>  (49) 
A4386a

>  <Pose>  (49) 
nan

>  <distance_score>  (49) 
1.658524

>  <ConformerSites upload name>  (49) 
nan

>  <HIPPO Pose ID>  (49) 
208181

>  <Crystalforms alias>  (49) 
nan

>  <original ID>  (49) 
KMYHYEWKIDCDGG-NHYWBVRUSA-N

>  <CanonSites alias>  (49) 
nan

>  <CrystalformSites alias>  (49) 
nan

>  <ref_pdb>  (49) 
A4386a

>  <CanonSites short tag>  (49) 
nan

>  <Quatassemblies alias>  (49) 
nan

>  <HIPPO Compound ID>  (49) 
122850

>  <CrystalformSites short tag>  (49) 
nan

$$$$
VDKTYYWXMPDQNX-YPMHNXCESA-N
     RDKit          3D

 21 23  0  0  0  0  0  0  0  0999 V2000
   10.4543   15.6875   19.3740 C   0  0  0  0  0  0  0  0  0  0  0  0
   10.3659   15.6172   20.8053 N   0  0  0  0  0  0  0  0  0  0  0  0
   10.9925   16.3979   21.8206 C   0  0  0  0  0  0  0  0  0  0  0  0
   11.6932   17.3638   21.7429 O   0  0  0  0  0  0  0  0  0  0  0  0
   10.6855   15.8902   23.2268 C   0  0  2  0  0  0  0  0  0  0  0  0
   11.3698   14.5792   23.5278 C   0  0  0  0  0  0  0  0  0  0  0  0
   10.9794   14.2008   24.9369 C   0  0  0  0  0  0  0  0  0  0  0  0
    9.5728   14.7365   25.2405 C   0  0  0  0  0  0  0  0  0  0  0  0
    8.5964   14.5357   24.0843 N   0  0  0  0  0  0  0  0  0  0  0  0
    7.3000   14.2402   24.5867 C   0  0  0  0  0  0  0  0  0  0  0  0
    6.3848   14.9693   24.8623 O   0  0  0  0  0  0  0  0  0  0  0  0
    7.0972   12.7155   24.6627 C   0  0  1  0  0  0  0  0  0  0  0  0
    8.3203   11.8004   24.5058 C   0  0  0  0  0  0  0  0  0  0  0  0
    7.7677   10.1298   24.9542 S   0  0  0  0  0  0  0  0  0  0  0  0
    6.5126   10.7842   26.0140 C   0  0  0  0  0  0  0  0  0  0  0  0
    5.7536   10.0563   26.9166 C   0  0  0  0  0  0  0  0  0  0  0  0
    4.8411   10.7222   27.7298 C   0  0  0  0  0  0  0  0  0  0  0  0
    4.6758   12.1024   27.6065 C   0  0  0  0  0  0  0  0  0  0  0  0
    5.4073   12.8228   26.6581 C   0  0  0  0  0  0  0  0  0  0  0  0
    6.3364   12.1641   25.8565 C   0  0  0  0  0  0  0  0  0  0  0  0
    9.2050   15.8461   23.6272 C   0  0  0  0  0  0  0  0  0  0  0  0
  1  2  1  0
  2  3  1  0
  3  4  2  0
  5  3  1  6
  5  6  1  0
  6  7  1  0
  7  8  1  0
  8  9  1  0
  9 10  1  0
 10 11  2  0
 12 10  1  1
 12 13  1  0
 13 14  1  0
 14 15  1  0
 15 16  2  0
 16 17  1  0
 17 18  2  0
 18 19  1  0
 19 20  2  0
  9 21  1  0
 21  5  1  0
 20 12  1  0
 20 15  1  0
M  END
>  <alias>  (50) 
None

>  <Experiment code>  (50) 
nan

>  <CrystalformSites upload name>  (50) 
nan

>  <inchikey>  (50) 
VDKTYYWXMPDQNX-YPMHNXCESA-N

>  <Crystalforms upload name>  (50) 
nan

>  <Quatassemblies upload name>  (50) 
nan

>  <ConformerSites alias>  (50) 
nan

>  <ConformerSites short tag>  (50) 
nan

>  <Crystalforms short tag>  (50) 
nan

>  <Centroid res>  (50) 
nan

>  <Quatassemblies short tag>  (50) 
nan

>  <observation_longname>  (50) 
nan

>  <name>  (50) 
VDKTYYWXMPDQNX-YPMHNXCESA-N

>  <CanonSites upload name>  (50) 
nan

>  <tags>  (50) 
[]

>  <energy_score>  (50) 
30.794009

>  <original SMILES>  (50) 
CNC(=O)[C@@H]1CCCN(C(=O)[C@H]2CSc3ccccc32)C1

>  <ref_mols>  (50) 
A4386a

>  <Pose>  (50) 
nan

>  <distance_score>  (50) 
2.025529

>  <ConformerSites upload name>  (50) 
nan

>  <HIPPO Pose ID>  (50) 
208214

>  <Crystalforms alias>  (50) 
nan

>  <original ID>  (50) 
VDKTYYWXMPDQNX-YPMHNXCESA-N

>  <CanonSites alias>  (50) 
nan

>  <CrystalformSites alias>  (50) 
nan

>  <ref_pdb>  (50) 
A4386a

>  <CanonSites short tag>  (50) 
nan

>  <Quatassemblies alias>  (50) 
nan

>  <HIPPO Compound ID>  (50) 
122856

>  <CrystalformSites short tag>  (50) 
nan

$$$$
VDKTYYWXMPDQNX-WCQYABFASA-N
     RDKit          3D

 21 23  0  0  0  0  0  0  0  0999 V2000
   11.2279   15.6022   18.8180 C   0  0  0  0  0  0  0  0  0  0  0  0
   10.5369   15.1470   19.9713 N   0  0  0  0  0  0  0  0  0  0  0  0
    9.8776   15.8681   21.0147 C   0  0  0  0  0  0  0  0  0  0  0  0
    9.6701   17.0361   21.1448 O   0  0  0  0  0  0  0  0  0  0  0  0
    9.4935   14.8893   22.1049 C   0  0  1  0  0  0  0  0  0  0  0  0
   10.6935   14.6474   23.0207 C   0  0  0  0  0  0  0  0  0  0  0  0
   10.4824   15.4368   24.2986 C   0  0  0  0  0  0  0  0  0  0  0  0
    9.0190   15.3327   24.7793 C   0  0  0  0  0  0  0  0  0  0  0  0
    8.0998   14.3637   24.0415 N   0  0  0  0  0  0  0  0  0  0  0  0
    6.9492   14.0688   24.8412 C   0  0  0  0  0  0  0  0  0  0  0  0
    5.8768   14.6044   24.8916 O   0  0  0  0  0  0  0  0  0  0  0  0
    7.2942   12.7867   25.6193 C   0  0  2  0  0  0  0  0  0  0  0  0
    7.8401   11.7151   24.6492 C   0  0  0  0  0  0  0  0  0  0  0  0
    7.4625   10.0832   25.3264 S   0  0  0  0  0  0  0  0  0  0  0  0
    6.1902   10.7375   26.3572 C   0  0  0  0  0  0  0  0  0  0  0  0
    5.3000    9.9853   27.1076 C   0  0  0  0  0  0  0  0  0  0  0  0
    4.3880   10.6415   27.9312 C   0  0  0  0  0  0  0  0  0  0  0  0
    4.3728   12.0377   27.9896 C   0  0  0  0  0  0  0  0  0  0  0  0
    5.2760   12.7881   27.2343 C   0  0  0  0  0  0  0  0  0  0  0  0
    6.1840   12.1340   26.4064 C   0  0  0  0  0  0  0  0  0  0  0  0
    8.2963   15.3624   22.9333 C   0  0  0  0  0  0  0  0  0  0  0  0
  1  2  1  0
  2  3  1  0
  3  4  2  0
  5  3  1  6
  5  6  1  0
  6  7  1  0
  7  8  1  0
  8  9  1  0
  9 10  1  0
 10 11  2  0
 12 10  1  6
 12 13  1  0
 13 14  1  0
 14 15  1  0
 15 16  2  0
 16 17  1  0
 17 18  2  0
 18 19  1  0
 19 20  2  0
  9 21  1  0
 21  5  1  0
 20 12  1  0
 20 15  1  0
M  END
>  <alias>  (51) 
None

>  <Experiment code>  (51) 
nan

>  <CrystalformSites upload name>  (51) 
nan

>  <inchikey>  (51) 
VDKTYYWXMPDQNX-WCQYABFASA-N

>  <Crystalforms upload name>  (51) 
nan

>  <Quatassemblies upload name>  (51) 
nan

>  <ConformerSites alias>  (51) 
nan

>  <ConformerSites short tag>  (51) 
nan

>  <Crystalforms short tag>  (51) 
nan

>  <Centroid res>  (51) 
nan

>  <Quatassemblies short tag>  (51) 
nan

>  <observation_longname>  (51) 
nan

>  <name>  (51) 
VDKTYYWXMPDQNX-WCQYABFASA-N

>  <CanonSites upload name>  (51) 
nan

>  <tags>  (51) 
[]

>  <energy_score>  (51) 
14.571796

>  <original SMILES>  (51) 
CNC(=O)[C@H]1CCCN(C(=O)[C@@H]2CSc3ccccc32)C1

>  <ref_mols>  (51) 
A4386a

>  <Pose>  (51) 
nan

>  <distance_score>  (51) 
1.93281

>  <ConformerSites upload name>  (51) 
nan

>  <HIPPO Pose ID>  (51) 
208215

>  <Crystalforms alias>  (51) 
nan

>  <original ID>  (51) 
VDKTYYWXMPDQNX-WCQYABFASA-N

>  <CanonSites alias>  (51) 
nan

>  <CrystalformSites alias>  (51) 
nan

>  <ref_pdb>  (51) 
A4386a

>  <CanonSites short tag>  (51) 
nan

>  <Quatassemblies alias>  (51) 
nan

>  <HIPPO Compound ID>  (51) 
122856

>  <CrystalformSites short tag>  (51) 
nan

$$$$
DTHIPRCIVYUWKC-ABAIWWIYSA-N
     RDKit          3D

 21 23  0  0  0  0  0  0  0  0999 V2000
   11.1704   14.5797   19.2842 N   0  0  0  0  0  0  0  0  0  0  0  0
   10.6024   15.8596   19.6213 C   0  0  0  0  0  0  0  0  0  0  0  0
   10.4809   16.8590   18.9649 O   0  0  0  0  0  0  0  0  0  0  0  0
   10.1466   16.0011   21.1236 C   0  0  2  0  0  0  0  0  0  0  0  0
    9.7091   17.3658   21.3038 O   0  0  0  0  0  0  0  0  0  0  0  0
   11.2351   15.7991   22.1606 C   0  0  0  0  0  0  0  0  0  0  0  0
   10.5631   15.9134   23.5296 C   0  0  0  0  0  0  0  0  0  0  0  0
    9.0716   15.5240   23.4329 C   0  0  0  0  0  0  0  0  0  0  0  0
    8.9314   14.1970   22.7122 N   0  0  0  0  0  0  0  0  0  0  0  0
    7.8728   13.4298   23.2918 C   0  0  0  0  0  0  0  0  0  0  0  0
    6.7057   13.3801   23.0165 O   0  0  0  0  0  0  0  0  0  0  0  0
    8.4431   12.5919   24.4495 C   0  0  2  0  0  0  0  0  0  0  0  0
    9.2308   11.3992   23.8947 C   0  0  0  0  0  0  0  0  0  0  0  0
    8.4234    9.8537   24.3896 S   0  0  0  0  0  0  0  0  0  0  0  0
    7.2649   10.6800   25.4244 C   0  0  0  0  0  0  0  0  0  0  0  0
    6.2989   10.0679   26.2083 C   0  0  0  0  0  0  0  0  0  0  0  0
    5.4670   10.8540   27.0043 C   0  0  0  0  0  0  0  0  0  0  0  0
    5.6012   12.2449   26.9975 C   0  0  0  0  0  0  0  0  0  0  0  0
    6.5637   12.8565   26.1914 C   0  0  0  0  0  0  0  0  0  0  0  0
    7.3950   12.0651   25.3994 C   0  0  0  0  0  0  0  0  0  0  0  0
    8.9434   15.1075   21.4930 C   0  0  0  0  0  0  0  0  0  0  0  0
  1  2  1  0
  2  3  2  0
  2  4  1  0
  4  5  1  6
  4  6  1  0
  6  7  1  0
  7  8  1  0
  8  9  1  0
  9 10  1  0
 10 11  2  0
 12 10  1  6
 12 13  1  0
 13 14  1  0
 14 15  1  0
 15 16  2  0
 16 17  1  0
 17 18  2  0
 18 19  1  0
 19 20  2  0
  9 21  1  0
 21  4  1  0
 20 12  1  0
 20 15  1  0
M  END
>  <alias>  (52) 
None

>  <Experiment code>  (52) 
nan

>  <CrystalformSites upload name>  (52) 
nan

>  <inchikey>  (52) 
DTHIPRCIVYUWKC-ABAIWWIYSA-N

>  <Crystalforms upload name>  (52) 
nan

>  <Quatassemblies upload name>  (52) 
nan

>  <ConformerSites alias>  (52) 
nan

>  <ConformerSites short tag>  (52) 
nan

>  <Crystalforms short tag>  (52) 
nan

>  <Centroid res>  (52) 
nan

>  <Quatassemblies short tag>  (52) 
nan

>  <observation_longname>  (52) 
nan

>  <name>  (52) 
DTHIPRCIVYUWKC-ABAIWWIYSA-N

>  <CanonSites upload name>  (52) 
nan

>  <tags>  (52) 
[]

>  <energy_score>  (52) 
178.017042

>  <original SMILES>  (52) 
NC(=O)[C@]1(O)CCCN(C(=O)[C@@H]2CSc3ccccc32)C1

>  <ref_mols>  (52) 
A4386a

>  <Pose>  (52) 
nan

>  <distance_score>  (52) 
1.033174

>  <ConformerSites upload name>  (52) 
nan

>  <HIPPO Pose ID>  (52) 
208222

>  <Crystalforms alias>  (52) 
nan

>  <original ID>  (52) 
DTHIPRCIVYUWKC-ABAIWWIYSA-N

>  <CanonSites alias>  (52) 
nan

>  <CrystalformSites alias>  (52) 
nan

>  <ref_pdb>  (52) 
A4386a

>  <CanonSites short tag>  (52) 
nan

>  <Quatassemblies alias>  (52) 
nan

>  <HIPPO Compound ID>  (52) 
122859

>  <CrystalformSites short tag>  (52) 
nan

$$$$
DTHIPRCIVYUWKC-IAQYHMDHSA-N
     RDKit          3D

 21 23  0  0  0  0  0  0  0  0999 V2000
   12.0169   15.5334   19.3725 N   0  0  0  0  0  0  0  0  0  0  0  0
   10.6861   15.8049   19.8612 C   0  0  0  0  0  0  0  0  0  0  0  0
    9.7441   16.3076   19.3203 O   0  0  0  0  0  0  0  0  0  0  0  0
   10.5952   15.3136   21.3239 C   0  0  1  0  0  0  0  0  0  0  0  0
   11.5218   14.2163   21.4789 O   0  0  0  0  0  0  0  0  0  0  0  0
   10.9953   16.4036   22.2950 C   0  0  0  0  0  0  0  0  0  0  0  0
   10.4827   15.9943   23.6669 C   0  0  0  0  0  0  0  0  0  0  0  0
    9.0540   15.4276   23.5586 C   0  0  0  0  0  0  0  0  0  0  0  0
    8.9897   14.0530   22.8980 N   0  0  0  0  0  0  0  0  0  0  0  0
    7.8625   13.3258   23.3825 C   0  0  0  0  0  0  0  0  0  0  0  0
    6.7380   13.2643   22.9679 O   0  0  0  0  0  0  0  0  0  0  0  0
    8.3337   12.4622   24.5604 C   0  0  2  0  0  0  0  0  0  0  0  0
    9.0274   11.2099   23.9978 C   0  0  0  0  0  0  0  0  0  0  0  0
    8.2063    9.7267   24.6354 S   0  0  0  0  0  0  0  0  0  0  0  0
    7.0576   10.6500   25.5954 C   0  0  0  0  0  0  0  0  0  0  0  0
    6.0659   10.1135   26.4034 C   0  0  0  0  0  0  0  0  0  0  0  0
    5.2519   10.9712   27.1416 C   0  0  0  0  0  0  0  0  0  0  0  0
    5.4280   12.3546   27.0524 C   0  0  0  0  0  0  0  0  0  0  0  0
    6.4183   12.8882   26.2253 C   0  0  0  0  0  0  0  0  0  0  0  0
    7.2330   12.0266   25.4924 C   0  0  0  0  0  0  0  0  0  0  0  0
    9.1614   14.8834   21.6542 C   0  0  0  0  0  0  0  0  0  0  0  0
  1  2  1  0
  2  3  2  0
  2  4  1  0
  4  5  1  6
  4  6  1  0
  6  7  1  0
  7  8  1  0
  8  9  1  0
  9 10  1  0
 10 11  2  0
 12 10  1  6
 12 13  1  0
 13 14  1  0
 14 15  1  0
 15 16  2  0
 16 17  1  0
 17 18  2  0
 18 19  1  0
 19 20  2  0
  9 21  1  0
 21  4  1  0
 20 12  1  0
 20 15  1  0
M  END
>  <alias>  (53) 
None

>  <Experiment code>  (53) 
nan

>  <CrystalformSites upload name>  (53) 
nan

>  <inchikey>  (53) 
DTHIPRCIVYUWKC-IAQYHMDHSA-N

>  <Crystalforms upload name>  (53) 
nan

>  <Quatassemblies upload name>  (53) 
nan

>  <ConformerSites alias>  (53) 
nan

>  <ConformerSites short tag>  (53) 
nan

>  <Crystalforms short tag>  (53) 
nan

>  <Centroid res>  (53) 
nan

>  <Quatassemblies short tag>  (53) 
nan

>  <observation_longname>  (53) 
nan

>  <name>  (53) 
DTHIPRCIVYUWKC-IAQYHMDHSA-N

>  <CanonSites upload name>  (53) 
nan

>  <tags>  (53) 
[]

>  <energy_score>  (53) 
131.409763

>  <original SMILES>  (53) 
NC(=O)[C@@]1(O)CCCN(C(=O)[C@@H]2CSc3ccccc32)C1

>  <ref_mols>  (53) 
A4386a

>  <Pose>  (53) 
nan

>  <distance_score>  (53) 
1.136608

>  <ConformerSites upload name>  (53) 
nan

>  <HIPPO Pose ID>  (53) 
208223

>  <Crystalforms alias>  (53) 
nan

>  <original ID>  (53) 
DTHIPRCIVYUWKC-IAQYHMDHSA-N

>  <CanonSites alias>  (53) 
nan

>  <CrystalformSites alias>  (53) 
nan

>  <ref_pdb>  (53) 
A4386a

>  <CanonSites short tag>  (53) 
nan

>  <Quatassemblies alias>  (53) 
nan

>  <HIPPO Compound ID>  (53) 
122859

>  <CrystalformSites short tag>  (53) 
nan

$$$$
DTHIPRCIVYUWKC-NHYWBVRUSA-N
     RDKit          3D

 21 23  0  0  0  0  0  0  0  0999 V2000
   10.4279   14.9269   19.5690 N   0  0  0  0  0  0  0  0  0  0  0  0
   10.2354   16.0816   20.4177 C   0  0  0  0  0  0  0  0  0  0  0  0
   10.0195   17.2311   20.1377 O   0  0  0  0  0  0  0  0  0  0  0  0
   10.3194   15.8300   21.9721 C   0  0  2  0  0  0  0  0  0  0  0  0
   10.9512   17.0112   22.5326 O   0  0  0  0  0  0  0  0  0  0  0  0
   11.1581   14.6779   22.4855 C   0  0  0  0  0  0  0  0  0  0  0  0
   10.9690   14.5959   23.9874 C   0  0  0  0  0  0  0  0  0  0  0  0
    9.5405   15.0235   24.3448 C   0  0  0  0  0  0  0  0  0  0  0  0
    8.4808   14.5247   23.3600 N   0  0  0  0  0  0  0  0  0  0  0  0
    7.2742   14.2221   24.0523 C   0  0  0  0  0  0  0  0  0  0  0  0
    6.3200   14.9109   24.2947 O   0  0  0  0  0  0  0  0  0  0  0  0
    7.2464   12.7320   24.4167 C   0  0  1  0  0  0  0  0  0  0  0  0
    8.5303   11.8994   24.3711 C   0  0  0  0  0  0  0  0  0  0  0  0
    8.0142   10.2304   24.8911 S   0  0  0  0  0  0  0  0  0  0  0  0
    6.7085   10.8968   25.8867 C   0  0  0  0  0  0  0  0  0  0  0  0
    5.9353   10.1954   26.7971 C   0  0  0  0  0  0  0  0  0  0  0  0
    5.0004   10.8881   27.5618 C   0  0  0  0  0  0  0  0  0  0  0  0
    4.8295   12.2635   27.3819 C   0  0  0  0  0  0  0  0  0  0  0  0
    5.5672   12.9525   26.4144 C   0  0  0  0  0  0  0  0  0  0  0  0
    6.5070   12.2649   25.6546 C   0  0  0  0  0  0  0  0  0  0  0  0
    8.9049   15.7731   22.6076 C   0  0  0  0  0  0  0  0  0  0  0  0
  1  2  1  0
  2  3  2  0
  2  4  1  0
  4  5  1  1
  4  6  1  0
  6  7  1  0
  7  8  1  0
  8  9  1  0
  9 10  1  0
 10 11  2  0
 12 10  1  1
 12 13  1  0
 13 14  1  0
 14 15  1  0
 15 16  2  0
 16 17  1  0
 17 18  2  0
 18 19  1  0
 19 20  2  0
  9 21  1  0
 21  4  1  0
 20 12  1  0
 20 15  1  0
M  END
>  <alias>  (54) 
None

>  <Experiment code>  (54) 
nan

>  <CrystalformSites upload name>  (54) 
nan

>  <inchikey>  (54) 
DTHIPRCIVYUWKC-NHYWBVRUSA-N

>  <Crystalforms upload name>  (54) 
nan

>  <Quatassemblies upload name>  (54) 
nan

>  <ConformerSites alias>  (54) 
nan

>  <ConformerSites short tag>  (54) 
nan

>  <Crystalforms short tag>  (54) 
nan

>  <Centroid res>  (54) 
nan

>  <Quatassemblies short tag>  (54) 
nan

>  <observation_longname>  (54) 
nan

>  <name>  (54) 
DTHIPRCIVYUWKC-NHYWBVRUSA-N

>  <CanonSites upload name>  (54) 
nan

>  <tags>  (54) 
[]

>  <energy_score>  (54) 
146.477735

>  <original SMILES>  (54) 
NC(=O)[C@]1(O)CCCN(C(=O)[C@H]2CSc3ccccc32)C1

>  <ref_mols>  (54) 
A4386a

>  <Pose>  (54) 
nan

>  <distance_score>  (54) 
1.500787

>  <ConformerSites upload name>  (54) 
nan

>  <HIPPO Pose ID>  (54) 
208224

>  <Crystalforms alias>  (54) 
nan

>  <original ID>  (54) 
DTHIPRCIVYUWKC-NHYWBVRUSA-N

>  <CanonSites alias>  (54) 
nan

>  <CrystalformSites alias>  (54) 
nan

>  <ref_pdb>  (54) 
A4386a

>  <CanonSites short tag>  (54) 
nan

>  <Quatassemblies alias>  (54) 
nan

>  <HIPPO Compound ID>  (54) 
122859

>  <CrystalformSites short tag>  (54) 
nan

$$$$
DTHIPRCIVYUWKC-XHDPSFHLSA-N
     RDKit          3D

 21 23  0  0  0  0  0  0  0  0999 V2000
   11.0062   15.0397   20.2325 N   0  0  0  0  0  0  0  0  0  0  0  0
   11.1949   15.8114   21.4535 C   0  0  0  0  0  0  0  0  0  0  0  0
   11.5758   16.9365   21.6152 O   0  0  0  0  0  0  0  0  0  0  0  0
   10.7458   14.9659   22.6619 C   0  0  1  0  0  0  0  0  0  0  0  0
   10.8398   13.5805   22.2833 O   0  0  0  0  0  0  0  0  0  0  0  0
   11.5476   15.2019   23.9206 C   0  0  0  0  0  0  0  0  0  0  0  0
   10.8453   14.4750   25.0454 C   0  0  0  0  0  0  0  0  0  0  0  0
    9.3393   14.7484   24.9544 C   0  0  0  0  0  0  0  0  0  0  0  0
    8.6112   14.1419   23.7546 N   0  0  0  0  0  0  0  0  0  0  0  0
    7.2539   13.9201   24.0742 C   0  0  0  0  0  0  0  0  0  0  0  0
    6.2943   14.6295   23.9405 O   0  0  0  0  0  0  0  0  0  0  0  0
    7.1010   12.4866   24.5661 C   0  0  1  0  0  0  0  0  0  0  0  0
    8.3152   11.5515   24.5712 C   0  0  0  0  0  0  0  0  0  0  0  0
    7.6640    9.9830   25.2267 S   0  0  0  0  0  0  0  0  0  0  0  0
    6.4396   10.8354   26.1857 C   0  0  0  0  0  0  0  0  0  0  0  0
    5.6510   10.2844   27.1822 C   0  0  0  0  0  0  0  0  0  0  0  0
    4.7755   11.1178   27.8748 C   0  0  0  0  0  0  0  0  0  0  0  0
    4.6824   12.4757   27.5447 C   0  0  0  0  0  0  0  0  0  0  0  0
    5.4476   13.0131   26.5061 C   0  0  0  0  0  0  0  0  0  0  0  0
    6.3306   12.1868   25.8249 C   0  0  0  0  0  0  0  0  0  0  0  0
    9.2826   15.2913   23.0390 C   0  0  0  0  0  0  0  0  0  0  0  0
  1  2  1  0
  2  3  2  0
  2  4  1  0
  4  5  1  6
  4  6  1  0
  6  7  1  0
  7  8  1  0
  8  9  1  0
  9 10  1  0
 10 11  2  0
 12 10  1  1
 12 13  1  0
 13 14  1  0
 14 15  1  0
 15 16  2  0
 16 17  1  0
 17 18  2  0
 18 19  1  0
 19 20  2  0
  9 21  1  0
 21  4  1  0
 20 12  1  0
 20 15  1  0
M  END
>  <alias>  (55) 
None

>  <Experiment code>  (55) 
nan

>  <CrystalformSites upload name>  (55) 
nan

>  <inchikey>  (55) 
DTHIPRCIVYUWKC-XHDPSFHLSA-N

>  <Crystalforms upload name>  (55) 
nan

>  <Quatassemblies upload name>  (55) 
nan

>  <ConformerSites alias>  (55) 
nan

>  <ConformerSites short tag>  (55) 
nan

>  <Crystalforms short tag>  (55) 
nan

>  <Centroid res>  (55) 
nan

>  <Quatassemblies short tag>  (55) 
nan

>  <observation_longname>  (55) 
nan

>  <name>  (55) 
DTHIPRCIVYUWKC-XHDPSFHLSA-N

>  <CanonSites upload name>  (55) 
nan

>  <tags>  (55) 
[]

>  <energy_score>  (55) 
150.949229

>  <original SMILES>  (55) 
NC(=O)[C@@]1(O)CCCN(C(=O)[C@H]2CSc3ccccc32)C1

>  <ref_mols>  (55) 
A4386a

>  <Pose>  (55) 
nan

>  <distance_score>  (55) 
1.905544

>  <ConformerSites upload name>  (55) 
nan

>  <HIPPO Pose ID>  (55) 
208225

>  <Crystalforms alias>  (55) 
nan

>  <original ID>  (55) 
DTHIPRCIVYUWKC-XHDPSFHLSA-N

>  <CanonSites alias>  (55) 
nan

>  <CrystalformSites alias>  (55) 
nan

>  <ref_pdb>  (55) 
A4386a

>  <CanonSites short tag>  (55) 
nan

>  <Quatassemblies alias>  (55) 
nan

>  <HIPPO Compound ID>  (55) 
122859

>  <CrystalformSites short tag>  (55) 
nan

$$$$
SPWOTSWQWSKTTN-ABAIWWIYSA-N
     RDKit          3D

 21 23  0  0  0  0  0  0  0  0999 V2000
   11.4630   12.6864   24.6897 N   0  0  0  0  0  0  0  0  0  0  0  0
   11.5899   14.1083   24.4706 C   0  0  0  0  0  0  0  0  0  0  0  0
   12.4381   14.8763   24.8218 O   0  0  0  0  0  0  0  0  0  0  0  0
   10.4133   14.6926   23.5606 C   0  0  2  0  0  0  0  0  0  0  0  0
    9.1105   14.4036   24.1810 N   0  0  0  0  0  0  0  0  0  0  0  0
    8.4963   13.1659   24.5396 C   0  0  0  0  0  0  0  0  0  0  0  0
    8.9189   12.0465   24.4992 O   0  0  0  0  0  0  0  0  0  0  0  0
    7.0923   13.3948   25.1679 C   0  0  2  0  0  0  0  0  0  0  0  0
    7.1256   14.5442   26.1973 C   0  0  0  0  0  0  0  0  0  0  0  0
    5.8332   14.2556   27.4250 S   0  0  0  0  0  0  0  0  0  0  0  0
    5.8263   12.5290   27.0914 C   0  0  0  0  0  0  0  0  0  0  0  0
    5.1823   11.5758   27.8708 C   0  0  0  0  0  0  0  0  0  0  0  0
    5.2502   10.2421   27.4867 C   0  0  0  0  0  0  0  0  0  0  0  0
    5.9556    9.8901   26.3356 C   0  0  0  0  0  0  0  0  0  0  0  0
    6.6010   10.8556   25.5622 C   0  0  0  0  0  0  0  0  0  0  0  0
    6.5413   12.1943   25.9390 C   0  0  0  0  0  0  0  0  0  0  0  0
   10.4925   14.1161   22.1445 C   0  0  0  0  0  0  0  0  0  0  0  0
    9.6306   14.8836   21.1348 C   0  0  0  0  0  0  0  0  0  0  0  0
    9.8090   16.3875   21.2121 C   0  0  0  0  0  0  0  0  0  0  0  0
    9.5851   16.8407   22.5841 N   0  0  0  0  0  0  0  0  0  0  0  0
   10.5938   16.2267   23.4583 C   0  0  0  0  0  0  0  0  0  0  0  0
  1  2  1  0
  2  3  2  0
  2  4  1  0
  4  5  1  1
  5  6  1  0
  6  7  2  0
  8  6  1  1
  8  9  1  0
  9 10  1  0
 10 11  1  0
 11 12  2  0
 12 13  1  0
 13 14  2  0
 14 15  1  0
 15 16  2  0
  4 17  1  0
 17 18  1  0
 18 19  1  0
 19 20  1  0
 20 21  1  0
 21  4  1  0
 16  8  1  0
 16 11  1  0
M  END
>  <alias>  (56) 
None

>  <Experiment code>  (56) 
nan

>  <CrystalformSites upload name>  (56) 
nan

>  <inchikey>  (56) 
SPWOTSWQWSKTTN-ABAIWWIYSA-N

>  <Crystalforms upload name>  (56) 
nan

>  <Quatassemblies upload name>  (56) 
nan

>  <ConformerSites alias>  (56) 
nan

>  <ConformerSites short tag>  (56) 
nan

>  <Crystalforms short tag>  (56) 
nan

>  <Centroid res>  (56) 
nan

>  <Quatassemblies short tag>  (56) 
nan

>  <observation_longname>  (56) 
nan

>  <name>  (56) 
SPWOTSWQWSKTTN-ABAIWWIYSA-N

>  <CanonSites upload name>  (56) 
nan

>  <tags>  (56) 
[]

>  <energy_score>  (56) 
-144.297151

>  <original SMILES>  (56) 
NC(=O)[C@]1(NC(=O)[C@@H]2CSc3ccccc32)CCCNC1

>  <ref_mols>  (56) 
A4386a

>  <Pose>  (56) 
nan

>  <distance_score>  (56) 
2.829096

>  <ConformerSites upload name>  (56) 
nan

>  <HIPPO Pose ID>  (56) 
208234

>  <Crystalforms alias>  (56) 
nan

>  <original ID>  (56) 
SPWOTSWQWSKTTN-ABAIWWIYSA-N

>  <CanonSites alias>  (56) 
nan

>  <CrystalformSites alias>  (56) 
nan

>  <ref_pdb>  (56) 
A4386a

>  <CanonSites short tag>  (56) 
nan

>  <Quatassemblies alias>  (56) 
nan

>  <HIPPO Compound ID>  (56) 
122861

>  <CrystalformSites short tag>  (56) 
nan

$$$$
SPWOTSWQWSKTTN-IAQYHMDHSA-N
     RDKit          3D

 21 23  0  0  0  0  0  0  0  0999 V2000
    6.6367   15.8089   24.4337 N   0  0  0  0  0  0  0  0  0  0  0  0
    7.9982   16.2816   24.6621 C   0  0  0  0  0  0  0  0  0  0  0  0
    8.4450   16.9902   25.5243 O   0  0  0  0  0  0  0  0  0  0  0  0
    9.0188   15.6396   23.6332 C   0  0  1  0  0  0  0  0  0  0  0  0
    9.0230   14.2510   24.0906 N   0  0  0  0  0  0  0  0  0  0  0  0
    8.1858   13.1465   23.7458 C   0  0  0  0  0  0  0  0  0  0  0  0
    7.3135   13.0523   22.9320 O   0  0  0  0  0  0  0  0  0  0  0  0
    8.4961   11.9910   24.7167 C   0  0  2  0  0  0  0  0  0  0  0  0
    8.8906   10.7211   23.9647 C   0  0  0  0  0  0  0  0  0  0  0  0
    8.0215    9.3326   24.7175 S   0  0  0  0  0  0  0  0  0  0  0  0
    6.9554   10.3608   25.6659 C   0  0  0  0  0  0  0  0  0  0  0  0
    5.8888    9.9424   26.4464 C   0  0  0  0  0  0  0  0  0  0  0  0
    5.1751   10.8824   27.1885 C   0  0  0  0  0  0  0  0  0  0  0  0
    5.5299   12.2314   27.1370 C   0  0  0  0  0  0  0  0  0  0  0  0
    6.5995   12.6472   26.3436 C   0  0  0  0  0  0  0  0  0  0  0  0
    7.3052   11.7025   25.5973 C   0  0  0  0  0  0  0  0  0  0  0  0
    8.6618   15.8596   22.1508 C   0  0  0  0  0  0  0  0  0  0  0  0
    9.7547   15.3512   21.2062 C   0  0  0  0  0  0  0  0  0  0  0  0
   11.1515   15.8304   21.5957 C   0  0  0  0  0  0  0  0  0  0  0  0
   11.4404   15.5045   23.0003 N   0  0  0  0  0  0  0  0  0  0  0  0
   10.4512   16.1828   23.8585 C   0  0  0  0  0  0  0  0  0  0  0  0
  1  2  1  0
  2  3  2  0
  2  4  1  0
  4  5  1  1
  5  6  1  0
  6  7  2  0
  8  6  1  6
  8  9  1  0
  9 10  1  0
 10 11  1  0
 11 12  2  0
 12 13  1  0
 13 14  2  0
 14 15  1  0
 15 16  2  0
  4 17  1  0
 17 18  1  0
 18 19  1  0
 19 20  1  0
 20 21  1  0
 21  4  1  0
 16  8  1  0
 16 11  1  0
M  END
>  <alias>  (57) 
None

>  <Experiment code>  (57) 
nan

>  <CrystalformSites upload name>  (57) 
nan

>  <inchikey>  (57) 
SPWOTSWQWSKTTN-IAQYHMDHSA-N

>  <Crystalforms upload name>  (57) 
nan

>  <Quatassemblies upload name>  (57) 
nan

>  <ConformerSites alias>  (57) 
nan

>  <ConformerSites short tag>  (57) 
nan

>  <Crystalforms short tag>  (57) 
nan

>  <Centroid res>  (57) 
nan

>  <Quatassemblies short tag>  (57) 
nan

>  <observation_longname>  (57) 
nan

>  <name>  (57) 
SPWOTSWQWSKTTN-IAQYHMDHSA-N

>  <CanonSites upload name>  (57) 
nan

>  <tags>  (57) 
[]

>  <energy_score>  (57) 
-7.70019

>  <original SMILES>  (57) 
NC(=O)[C@@]1(NC(=O)[C@@H]2CSc3ccccc32)CCCNC1

>  <ref_mols>  (57) 
A4386a

>  <Pose>  (57) 
nan

>  <distance_score>  (57) 
1.932216

>  <ConformerSites upload name>  (57) 
nan

>  <HIPPO Pose ID>  (57) 
208235

>  <Crystalforms alias>  (57) 
nan

>  <original ID>  (57) 
SPWOTSWQWSKTTN-IAQYHMDHSA-N

>  <CanonSites alias>  (57) 
nan

>  <CrystalformSites alias>  (57) 
nan

>  <ref_pdb>  (57) 
A4386a

>  <CanonSites short tag>  (57) 
nan

>  <Quatassemblies alias>  (57) 
nan

>  <HIPPO Compound ID>  (57) 
122861

>  <CrystalformSites short tag>  (57) 
nan

$$$$
SPWOTSWQWSKTTN-NHYWBVRUSA-N
     RDKit          3D

 21 23  0  0  0  0  0  0  0  0999 V2000
   10.8531   14.9645   26.1455 N   0  0  0  0  0  0  0  0  0  0  0  0
   11.5299   14.7292   24.8752 C   0  0  0  0  0  0  0  0  0  0  0  0
   12.6804   14.4786   24.6398 O   0  0  0  0  0  0  0  0  0  0  0  0
   10.5465   14.9043   23.6115 C   0  0  2  0  0  0  0  0  0  0  0  0
    9.5319   13.8572   23.7554 N   0  0  0  0  0  0  0  0  0  0  0  0
    8.5371   13.6457   24.7607 C   0  0  0  0  0  0  0  0  0  0  0  0
    8.3295   14.2278   25.7866 O   0  0  0  0  0  0  0  0  0  0  0  0
    7.7027   12.3868   24.4243 C   0  0  1  0  0  0  0  0  0  0  0  0
    8.6337   11.1750   24.2010 C   0  0  0  0  0  0  0  0  0  0  0  0
    7.8679    9.6931   24.8821 S   0  0  0  0  0  0  0  0  0  0  0  0
    6.6942   10.6227   25.8031 C   0  0  0  0  0  0  0  0  0  0  0  0
    5.7914   10.0978   26.7172 C   0  0  0  0  0  0  0  0  0  0  0  0
    4.9136   10.9549   27.3765 C   0  0  0  0  0  0  0  0  0  0  0  0
    4.9226   12.3202   27.0875 C   0  0  0  0  0  0  0  0  0  0  0  0
    5.8132   12.8353   26.1433 C   0  0  0  0  0  0  0  0  0  0  0  0
    6.7230   11.9851   25.5124 C   0  0  0  0  0  0  0  0  0  0  0  0
   11.3263   14.7121   22.2890 C   0  0  0  0  0  0  0  0  0  0  0  0
   10.7694   15.4989   21.1005 C   0  0  0  0  0  0  0  0  0  0  0  0
    9.2782   15.7545   21.2175 C   0  0  0  0  0  0  0  0  0  0  0  0
    8.8815   16.4117   22.4640 N   0  0  0  0  0  0  0  0  0  0  0  0
    9.8892   16.3036   23.5331 C   0  0  0  0  0  0  0  0  0  0  0  0
  1  2  1  0
  2  3  2  0
  2  4  1  0
  4  5  1  1
  5  6  1  0
  6  7  2  0
  8  6  1  1
  8  9  1  0
  9 10  1  0
 10 11  1  0
 11 12  2  0
 12 13  1  0
 13 14  2  0
 14 15  1  0
 15 16  2  0
  4 17  1  0
 17 18  1  0
 18 19  1  0
 19 20  1  0
 20 21  1  0
 21  4  1  0
 16  8  1  0
 16 11  1  0
M  END
>  <alias>  (58) 
None

>  <Experiment code>  (58) 
nan

>  <CrystalformSites upload name>  (58) 
nan

>  <inchikey>  (58) 
SPWOTSWQWSKTTN-NHYWBVRUSA-N

>  <Crystalforms upload name>  (58) 
nan

>  <Quatassemblies upload name>  (58) 
nan

>  <ConformerSites alias>  (58) 
nan

>  <ConformerSites short tag>  (58) 
nan

>  <Crystalforms short tag>  (58) 
nan

>  <Centroid res>  (58) 
nan

>  <Quatassemblies short tag>  (58) 
nan

>  <observation_longname>  (58) 
nan

>  <name>  (58) 
SPWOTSWQWSKTTN-NHYWBVRUSA-N

>  <CanonSites upload name>  (58) 
nan

>  <tags>  (58) 
[]

>  <energy_score>  (58) 
-86.15071

>  <original SMILES>  (58) 
NC(=O)[C@]1(NC(=O)[C@H]2CSc3ccccc32)CCCNC1

>  <ref_mols>  (58) 
A4386a

>  <Pose>  (58) 
nan

>  <distance_score>  (58) 
2.123057

>  <ConformerSites upload name>  (58) 
nan

>  <HIPPO Pose ID>  (58) 
208236

>  <Crystalforms alias>  (58) 
nan

>  <original ID>  (58) 
SPWOTSWQWSKTTN-NHYWBVRUSA-N

>  <CanonSites alias>  (58) 
nan

>  <CrystalformSites alias>  (58) 
nan

>  <ref_pdb>  (58) 
A4386a

>  <CanonSites short tag>  (58) 
nan

>  <Quatassemblies alias>  (58) 
nan

>  <HIPPO Compound ID>  (58) 
122861

>  <CrystalformSites short tag>  (58) 
nan

$$$$
SPWOTSWQWSKTTN-XHDPSFHLSA-N
     RDKit          3D

 21 23  0  0  0  0  0  0  0  0999 V2000
   10.9083   14.9397   26.1890 N   0  0  0  0  0  0  0  0  0  0  0  0
   11.4699   14.6568   24.8732 C   0  0  0  0  0  0  0  0  0  0  0  0
   12.5921   14.3811   24.5471 O   0  0  0  0  0  0  0  0  0  0  0  0
   10.3850   14.8349   23.7256 C   0  0  1  0  0  0  0  0  0  0  0  0
    9.3260   13.8392   23.9348 N   0  0  0  0  0  0  0  0  0  0  0  0
    8.4076   13.6573   25.0133 C   0  0  0  0  0  0  0  0  0  0  0  0
    8.3170   14.2240   26.0636 O   0  0  0  0  0  0  0  0  0  0  0  0
    7.5010   12.4445   24.6907 C   0  0  1  0  0  0  0  0  0  0  0  0
    8.3864   11.2099   24.4006 C   0  0  0  0  0  0  0  0  0  0  0  0
    7.6041    9.7365   25.0801 S   0  0  0  0  0  0  0  0  0  0  0  0
    6.4808   10.6774   26.0503 C   0  0  0  0  0  0  0  0  0  0  0  0
    5.5897   10.1510   26.9747 C   0  0  0  0  0  0  0  0  0  0  0  0
    4.7532   11.0166   27.6748 C   0  0  0  0  0  0  0  0  0  0  0  0
    4.7987   12.3903   27.4233 C   0  0  0  0  0  0  0  0  0  0  0  0
    5.6834   12.9079   26.4744 C   0  0  0  0  0  0  0  0  0  0  0  0
    6.5460   12.0476   25.7972 C   0  0  0  0  0  0  0  0  0  0  0  0
    9.7942   16.2592   23.6667 C   0  0  0  0  0  0  0  0  0  0  0  0
    9.7573   16.8481   22.2456 C   0  0  0  0  0  0  0  0  0  0  0  0
    9.3501   15.8440   21.1714 C   0  0  0  0  0  0  0  0  0  0  0  0
    9.9308   14.5211   21.3541 N   0  0  0  0  0  0  0  0  0  0  0  0
   11.0126   14.5059   22.3488 C   0  0  0  0  0  0  0  0  0  0  0  0
  1  2  1  0
  2  3  2  0
  2  4  1  0
  4  5  1  1
  5  6  1  0
  6  7  2  0
  8  6  1  1
  8  9  1  0
  9 10  1  0
 10 11  1  0
 11 12  2  0
 12 13  1  0
 13 14  2  0
 14 15  1  0
 15 16  2  0
  4 17  1  0
 17 18  1  0
 18 19  1  0
 19 20  1  0
 20 21  1  0
 21  4  1  0
 16  8  1  0
 16 11  1  0
M  END
>  <alias>  (59) 
None

>  <Experiment code>  (59) 
nan

>  <CrystalformSites upload name>  (59) 
nan

>  <inchikey>  (59) 
SPWOTSWQWSKTTN-XHDPSFHLSA-N

>  <Crystalforms upload name>  (59) 
nan

>  <Quatassemblies upload name>  (59) 
nan

>  <ConformerSites alias>  (59) 
nan

>  <ConformerSites short tag>  (59) 
nan

>  <Crystalforms short tag>  (59) 
nan

>  <Centroid res>  (59) 
nan

>  <Quatassemblies short tag>  (59) 
nan

>  <observation_longname>  (59) 
nan

>  <name>  (59) 
SPWOTSWQWSKTTN-XHDPSFHLSA-N

>  <CanonSites upload name>  (59) 
nan

>  <tags>  (59) 
[]

>  <energy_score>  (59) 
116.216359

>  <original SMILES>  (59) 
NC(=O)[C@@]1(NC(=O)[C@H]2CSc3ccccc32)CCCNC1

>  <ref_mols>  (59) 
A4386a

>  <Pose>  (59) 
nan

>  <distance_score>  (59) 
2.334474

>  <ConformerSites upload name>  (59) 
nan

>  <HIPPO Pose ID>  (59) 
208237

>  <Crystalforms alias>  (59) 
nan

>  <original ID>  (59) 
SPWOTSWQWSKTTN-XHDPSFHLSA-N

>  <CanonSites alias>  (59) 
nan

>  <CrystalformSites alias>  (59) 
nan

>  <ref_pdb>  (59) 
A4386a

>  <CanonSites short tag>  (59) 
nan

>  <Quatassemblies alias>  (59) 
nan

>  <HIPPO Compound ID>  (59) 
122861

>  <CrystalformSites short tag>  (59) 
nan

$$$$
IQRUJMCPLXCOCF-NSHDSACASA-N
     RDKit          3D

 21 22  0  0  0  0  0  0  0  0999 V2000
    8.9669   11.9291   23.3076 C   0  0  0  0  0  0  0  0  0  0  0  0
    9.3002   12.3833   25.0037 S   0  0  0  0  0  0  0  0  0  0  0  0
    7.6314   12.5897   25.6257 C   0  0  0  0  0  0  0  0  0  0  0  0
    6.7573   11.5075   25.8367 C   0  0  0  0  0  0  0  0  0  0  0  0
    7.2110    9.7167   25.4247 Br  0  0  0  0  0  0  0  0  0  0  0  0
    5.4950   11.7020   26.4063 C   0  0  0  0  0  0  0  0  0  0  0  0
    5.0712   12.9801   26.7435 C   0  0  0  0  0  0  0  0  0  0  0  0
    5.9235   14.0613   26.5460 C   0  0  0  0  0  0  0  0  0  0  0  0
    7.2155   13.8802   26.0185 C   0  0  0  0  0  0  0  0  0  0  0  0
    8.1151   15.0930   25.9310 C   0  0  0  0  0  0  0  0  0  0  0  0
    7.9310   15.9331   24.6694 C   0  0  0  0  0  0  0  0  0  0  0  0
    7.1582   16.8548   24.7106 O   0  0  0  0  0  0  0  0  0  0  0  0
    8.8234   15.5107   23.6289 N   0  0  0  0  0  0  0  0  0  0  0  0
   10.1789   16.1744   23.8036 C   0  0  0  0  0  0  0  0  0  0  0  0
   11.3586   15.3437   23.3054 C   0  0  0  0  0  0  0  0  0  0  0  0
   11.4363   15.5375   21.8184 C   0  0  0  0  0  0  0  0  0  0  0  0
   10.0367   15.3604   21.2656 C   0  0  2  0  0  0  0  0  0  0  0  0
   10.1193   15.7269   19.7548 C   0  0  0  0  0  0  0  0  0  0  0  0
    9.7991   17.0976   19.4552 N   0  0  0  0  0  0  0  0  0  0  0  0
   10.5141   14.8448   19.0446 O   0  0  0  0  0  0  0  0  0  0  0  0
    8.9994   16.0220   22.1990 C   0  0  0  0  0  0  0  0  0  0  0  0
  1  2  1  0
  2  3  1  0
  3  4  2  0
  4  5  1  0
  4  6  1  0
  6  7  2  0
  7  8  1  0
  8  9  2  0
  9 10  1  0
 10 11  1  0
 11 12  2  0
 11 13  1  0
 13 14  1  0
 14 15  1  0
 15 16  1  0
 16 17  1  0
 17 18  1  6
 18 19  1  0
 18 20  2  0
 17 21  1  0
  9  3  1  0
 21 13  1  0
M  END
>  <alias>  (60) 
None

>  <Experiment code>  (60) 
nan

>  <CrystalformSites upload name>  (60) 
nan

>  <inchikey>  (60) 
IQRUJMCPLXCOCF-NSHDSACASA-N

>  <Crystalforms upload name>  (60) 
nan

>  <Quatassemblies upload name>  (60) 
nan

>  <ConformerSites alias>  (60) 
nan

>  <ConformerSites short tag>  (60) 
nan

>  <Crystalforms short tag>  (60) 
nan

>  <Centroid res>  (60) 
nan

>  <Quatassemblies short tag>  (60) 
nan

>  <observation_longname>  (60) 
nan

>  <name>  (60) 
IQRUJMCPLXCOCF-NSHDSACASA-N

>  <CanonSites upload name>  (60) 
nan

>  <tags>  (60) 
[]

>  <energy_score>  (60) 
200.755274

>  <original SMILES>  (60) 
CSc1c(Br)cccc1CC(=O)N1CCC[C@H](C(N)=O)C1

>  <ref_mols>  (60) 
A4386a

>  <Pose>  (60) 
nan

>  <distance_score>  (60) 
1.97092

>  <ConformerSites upload name>  (60) 
nan

>  <HIPPO Pose ID>  (60) 
208253

>  <Crystalforms alias>  (60) 
nan

>  <original ID>  (60) 
IQRUJMCPLXCOCF-NSHDSACASA-N

>  <CanonSites alias>  (60) 
nan

>  <CrystalformSites alias>  (60) 
nan

>  <ref_pdb>  (60) 
A4386a

>  <CanonSites short tag>  (60) 
nan

>  <Quatassemblies alias>  (60) 
nan

>  <HIPPO Compound ID>  (60) 
122490

>  <CrystalformSites short tag>  (60) 
nan

$$$$
IQRUJMCPLXCOCF-LLVKDONJSA-N
     RDKit          3D

 21 22  0  0  0  0  0  0  0  0999 V2000
    8.6072   11.5388   23.5078 C   0  0  0  0  0  0  0  0  0  0  0  0
    8.9893   12.1590   25.1381 S   0  0  0  0  0  0  0  0  0  0  0  0
    7.3608   12.5955   25.7506 C   0  0  0  0  0  0  0  0  0  0  0  0
    6.3602   11.6434   26.0236 C   0  0  0  0  0  0  0  0  0  0  0  0
    6.6060    9.7775   25.8091 Br  0  0  0  0  0  0  0  0  0  0  0  0
    5.1181   12.0298   26.5385 C   0  0  0  0  0  0  0  0  0  0  0  0
    4.8452   13.3686   26.7767 C   0  0  0  0  0  0  0  0  0  0  0  0
    5.8337   14.3185   26.5519 C   0  0  0  0  0  0  0  0  0  0  0  0
    7.1059   13.9460   26.0783 C   0  0  0  0  0  0  0  0  0  0  0  0
    8.1624   15.0256   26.0200 C   0  0  0  0  0  0  0  0  0  0  0  0
    8.0562   15.9821   24.8398 C   0  0  0  0  0  0  0  0  0  0  0  0
    7.3562   16.9544   24.9460 O   0  0  0  0  0  0  0  0  0  0  0  0
    8.9320   15.5752   23.7808 N   0  0  0  0  0  0  0  0  0  0  0  0
   10.3164   16.1089   24.0228 C   0  0  0  0  0  0  0  0  0  0  0  0
   11.3690   15.0648   23.6077 C   0  0  0  0  0  0  0  0  0  0  0  0
   11.0960   14.6372   22.1768 C   0  0  0  0  0  0  0  0  0  0  0  0
   10.4366   15.8286   21.5253 C   0  0  1  0  0  0  0  0  0  0  0  0
   10.1876   15.9236   20.0042 C   0  0  0  0  0  0  0  0  0  0  0  0
   10.4848   14.7242   19.2713 N   0  0  0  0  0  0  0  0  0  0  0  0
    9.8540   17.0099   19.6213 O   0  0  0  0  0  0  0  0  0  0  0  0
    9.1788   16.1946   22.3713 C   0  0  0  0  0  0  0  0  0  0  0  0
  1  2  1  0
  2  3  1  0
  3  4  2  0
  4  5  1  0
  4  6  1  0
  6  7  2  0
  7  8  1  0
  8  9  2  0
  9 10  1  0
 10 11  1  0
 11 12  2  0
 11 13  1  0
 13 14  1  0
 14 15  1  0
 15 16  1  0
 16 17  1  0
 17 18  1  6
 18 19  1  0
 18 20  2  0
 17 21  1  0
  9  3  1  0
 21 13  1  0
M  END
>  <alias>  (61) 
None

>  <Experiment code>  (61) 
nan

>  <CrystalformSites upload name>  (61) 
nan

>  <inchikey>  (61) 
IQRUJMCPLXCOCF-LLVKDONJSA-N

>  <Crystalforms upload name>  (61) 
nan

>  <Quatassemblies upload name>  (61) 
nan

>  <ConformerSites alias>  (61) 
nan

>  <ConformerSites short tag>  (61) 
nan

>  <Crystalforms short tag>  (61) 
nan

>  <Centroid res>  (61) 
nan

>  <Quatassemblies short tag>  (61) 
nan

>  <observation_longname>  (61) 
nan

>  <name>  (61) 
IQRUJMCPLXCOCF-LLVKDONJSA-N

>  <CanonSites upload name>  (61) 
nan

>  <tags>  (61) 
[]

>  <energy_score>  (61) 
158.855559

>  <original SMILES>  (61) 
CSc1c(Br)cccc1CC(=O)N1CCC[C@@H](C(N)=O)C1

>  <ref_mols>  (61) 
A4386a

>  <Pose>  (61) 
nan

>  <distance_score>  (61) 
1.966515

>  <ConformerSites upload name>  (61) 
nan

>  <HIPPO Pose ID>  (61) 
208254

>  <Crystalforms alias>  (61) 
nan

>  <original ID>  (61) 
IQRUJMCPLXCOCF-LLVKDONJSA-N

>  <CanonSites alias>  (61) 
nan

>  <CrystalformSites alias>  (61) 
nan

>  <ref_pdb>  (61) 
A4386a

>  <CanonSites short tag>  (61) 
nan

>  <Quatassemblies alias>  (61) 
nan

>  <HIPPO Compound ID>  (61) 
122490

>  <CrystalformSites short tag>  (61) 
nan

$$$$
NNJBQLOPMCYGNX-MNOVXSKESA-N
     RDKit          3D

 21 23  0  0  0  0  0  0  0  0999 V2000
    8.8880    9.7354   24.2230 C   0  0  0  0  0  0  0  0  0  0  0  0
    8.5078   11.4818   23.9736 S   0  0  0  0  0  0  0  0  0  0  0  0
    7.6495   12.0691   25.4534 C   0  0  0  0  0  0  0  0  0  0  0  0
    6.6738   11.3760   26.1979 C   0  0  0  0  0  0  0  0  0  0  0  0
    6.1223    9.5979   25.9018 Br  0  0  0  0  0  0  0  0  0  0  0  0
    5.9875   11.9883   27.2632 C   0  0  0  0  0  0  0  0  0  0  0  0
    6.2436   13.3025   27.6138 C   0  0  0  0  0  0  0  0  0  0  0  0
    7.1910   14.0159   26.8985 C   0  0  0  0  0  0  0  0  0  0  0  0
    7.9019   13.4211   25.8309 C   0  0  0  0  0  0  0  0  0  0  0  0
    8.8130   14.3515   25.0346 C   0  0  0  0  0  0  0  0  0  0  0  0
    8.0848   14.8402   23.7857 C   0  0  0  0  0  0  0  0  0  0  0  0
    6.8875   14.9533   23.8059 O   0  0  0  0  0  0  0  0  0  0  0  0
    9.0109   15.0028   22.7186 N   0  0  0  0  0  0  0  0  0  0  0  0
    9.5092   16.4600   22.6715 C   0  0  0  0  0  0  0  0  0  0  0  0
   10.7264   16.8716   21.7880 C   0  0  2  0  0  0  0  0  0  0  0  0
   10.1525   17.0059   20.3938 C   0  0  0  0  0  0  0  0  0  0  0  0
    9.8609   15.5428   20.2244 C   0  0  2  0  0  0  0  0  0  0  0  0
    8.7854   15.2529   21.2704 C   0  0  0  0  0  0  0  0  0  0  0  0
   11.2469   15.0515   20.5464 C   0  0  0  0  0  0  0  0  0  0  0  0
   11.9576   14.3436   19.8594 O   0  0  0  0  0  0  0  0  0  0  0  0
   11.6685   15.7905   21.6472 N   0  0  0  0  0  0  0  0  0  0  0  0
  1  2  1  0
  2  3  1  0
  3  4  2  0
  4  5  1  0
  4  6  1  0
  6  7  2  0
  7  8  1  0
  8  9  2  0
  9 10  1  0
 10 11  1  0
 11 12  2  0
 11 13  1  0
 13 14  1  0
 15 14  1  1
 15 16  1  0
 16 17  1  0
 17 18  1  1
 17 19  1  0
 19 20  2  0
 19 21  1  0
  9  3  1  0
 18 13  1  0
 21 15  1  0
M  END
>  <alias>  (62) 
None

>  <Experiment code>  (62) 
nan

>  <CrystalformSites upload name>  (62) 
nan

>  <inchikey>  (62) 
NNJBQLOPMCYGNX-MNOVXSKESA-N

>  <Crystalforms upload name>  (62) 
nan

>  <Quatassemblies upload name>  (62) 
nan

>  <ConformerSites alias>  (62) 
nan

>  <ConformerSites short tag>  (62) 
nan

>  <Crystalforms short tag>  (62) 
nan

>  <Centroid res>  (62) 
nan

>  <Quatassemblies short tag>  (62) 
nan

>  <observation_longname>  (62) 
nan

>  <name>  (62) 
NNJBQLOPMCYGNX-MNOVXSKESA-N

>  <CanonSites upload name>  (62) 
nan

>  <tags>  (62) 
[]

>  <energy_score>  (62) 
42.204491

>  <original SMILES>  (62) 
CSc1c(Br)cccc1CC(=O)N1C[C@@H]2C[C@H](C1)C(=O)N2

>  <ref_mols>  (62) 
A4386a

>  <Pose>  (62) 
nan

>  <distance_score>  (62) 
1.912

>  <ConformerSites upload name>  (62) 
nan

>  <HIPPO Pose ID>  (62) 
208261

>  <Crystalforms alias>  (62) 
nan

>  <original ID>  (62) 
NNJBQLOPMCYGNX-MNOVXSKESA-N

>  <CanonSites alias>  (62) 
nan

>  <CrystalformSites alias>  (62) 
nan

>  <ref_pdb>  (62) 
A4386a

>  <CanonSites short tag>  (62) 
nan

>  <Quatassemblies alias>  (62) 
nan

>  <HIPPO Compound ID>  (62) 
122873

>  <CrystalformSites short tag>  (62) 
nan

$$$$
NNJBQLOPMCYGNX-WDEREUQCSA-N
     RDKit          3D

 21 23  0  0  0  0  0  0  0  0999 V2000
    9.1014   11.8524   23.3262 C   0  0  0  0  0  0  0  0  0  0  0  0
    9.1964   12.4451   25.0162 S   0  0  0  0  0  0  0  0  0  0  0  0
    7.5020   12.1751   25.5665 C   0  0  0  0  0  0  0  0  0  0  0  0
    6.9588   10.8905   25.7413 C   0  0  0  0  0  0  0  0  0  0  0  0
    7.7797    9.3404   25.0445 Br  0  0  0  0  0  0  0  0  0  0  0  0
    5.7430   10.7009   26.4067 C   0  0  0  0  0  0  0  0  0  0  0  0
    5.0211   11.7983   26.8569 C   0  0  0  0  0  0  0  0  0  0  0  0
    5.4941   13.0822   26.6045 C   0  0  0  0  0  0  0  0  0  0  0  0
    6.7274   13.2877   25.9583 C   0  0  0  0  0  0  0  0  0  0  0  0
    7.1148   14.7089   25.6031 C   0  0  0  0  0  0  0  0  0  0  0  0
    6.7945   15.0225   24.1344 C   0  0  0  0  0  0  0  0  0  0  0  0
    5.6541   15.1980   23.7949 O   0  0  0  0  0  0  0  0  0  0  0  0
    8.0060   15.0411   23.3716 N   0  0  0  0  0  0  0  0  0  0  0  0
    8.5978   16.4404   23.3673 C   0  0  0  0  0  0  0  0  0  0  0  0
   10.1076   16.5968   22.9948 C   0  0  1  0  0  0  0  0  0  0  0  0
   10.6352   15.2586   22.5354 C   0  0  0  0  0  0  0  0  0  0  0  0
    9.6894   15.1499   21.3509 C   0  0  1  0  0  0  0  0  0  0  0  0
    8.2328   15.1751   21.8762 C   0  0  0  0  0  0  0  0  0  0  0  0
    9.9194   16.5004   20.7064 C   0  0  0  0  0  0  0  0  0  0  0  0
    9.7879   16.8009   19.5387 O   0  0  0  0  0  0  0  0  0  0  0  0
   10.2170   17.3451   21.7688 N   0  0  0  0  0  0  0  0  0  0  0  0
  1  2  1  0
  2  3  1  0
  3  4  2  0
  4  5  1  0
  4  6  1  0
  6  7  2  0
  7  8  1  0
  8  9  2  0
  9 10  1  0
 10 11  1  0
 11 12  2  0
 11 13  1  0
 13 14  1  0
 15 14  1  6
 15 16  1  0
 16 17  1  0
 17 18  1  1
 17 19  1  0
 19 20  2  0
 19 21  1  0
  9  3  1  0
 18 13  1  0
 21 15  1  0
M  END
>  <alias>  (63) 
None

>  <Experiment code>  (63) 
nan

>  <CrystalformSites upload name>  (63) 
nan

>  <inchikey>  (63) 
NNJBQLOPMCYGNX-WDEREUQCSA-N

>  <Crystalforms upload name>  (63) 
nan

>  <Quatassemblies upload name>  (63) 
nan

>  <ConformerSites alias>  (63) 
nan

>  <ConformerSites short tag>  (63) 
nan

>  <Crystalforms short tag>  (63) 
nan

>  <Centroid res>  (63) 
nan

>  <Quatassemblies short tag>  (63) 
nan

>  <observation_longname>  (63) 
nan

>  <name>  (63) 
NNJBQLOPMCYGNX-WDEREUQCSA-N

>  <CanonSites upload name>  (63) 
nan

>  <tags>  (63) 
[]

>  <energy_score>  (63) 
31.957349

>  <original SMILES>  (63) 
CSc1c(Br)cccc1CC(=O)N1C[C@H]2C[C@@H](C1)C(=O)N2

>  <ref_mols>  (63) 
A4386a

>  <Pose>  (63) 
nan

>  <distance_score>  (63) 
1.803926

>  <ConformerSites upload name>  (63) 
nan

>  <HIPPO Pose ID>  (63) 
208262

>  <Crystalforms alias>  (63) 
nan

>  <original ID>  (63) 
NNJBQLOPMCYGNX-WDEREUQCSA-N

>  <CanonSites alias>  (63) 
nan

>  <CrystalformSites alias>  (63) 
nan

>  <ref_pdb>  (63) 
A4386a

>  <CanonSites short tag>  (63) 
nan

>  <Quatassemblies alias>  (63) 
nan

>  <HIPPO Compound ID>  (63) 
122873

>  <CrystalformSites short tag>  (63) 
nan

$$$$
ZPPSFBXZVAZURQ-ABAIWWIYSA-N
     RDKit          3D

 21 23  0  0  0  0  0  0  0  0999 V2000
   11.8002   15.5217   19.7775 N   0  0  0  0  0  0  0  0  0  0  0  0
   10.4601   15.6140   20.3454 C   0  0  0  0  0  0  0  0  0  0  0  0
    9.3897   15.6728   19.8097 O   0  0  0  0  0  0  0  0  0  0  0  0
   10.4802   15.7606   21.9289 C   0  0  2  0  0  0  0  0  0  0  0  0
   11.0443   17.1052   22.2272 N   0  0  0  0  0  0  0  0  0  0  0  0
   11.3747   14.7579   22.6515 C   0  0  0  0  0  0  0  0  0  0  0  0
   11.1480   14.8575   24.1501 C   0  0  0  0  0  0  0  0  0  0  0  0
    9.7169   15.3115   24.4110 C   0  0  0  0  0  0  0  0  0  0  0  0
    8.7806   14.4750   23.5798 N   0  0  0  0  0  0  0  0  0  0  0  0
    7.6137   14.1384   24.3403 C   0  0  0  0  0  0  0  0  0  0  0  0
    6.5612   14.7057   24.4453 O   0  0  0  0  0  0  0  0  0  0  0  0
    7.9364   12.8301   25.1007 C   0  0  2  0  0  0  0  0  0  0  0  0
    8.4349   11.7560   24.1165 C   0  0  0  0  0  0  0  0  0  0  0  0
    8.0460   10.1322   24.8128 S   0  0  0  0  0  0  0  0  0  0  0  0
    6.7784   10.8088   25.8340 C   0  0  0  0  0  0  0  0  0  0  0  0
    5.8526   10.0760   26.5601 C   0  0  0  0  0  0  0  0  0  0  0  0
    4.9545   10.7480   27.3858 C   0  0  0  0  0  0  0  0  0  0  0  0
    4.9864   12.1425   27.4673 C   0  0  0  0  0  0  0  0  0  0  0  0
    5.9184   12.8740   26.7272 C   0  0  0  0  0  0  0  0  0  0  0  0
    6.8104   12.2040   25.8933 C   0  0  0  0  0  0  0  0  0  0  0  0
    9.0266   15.6055   22.5635 C   0  0  0  0  0  0  0  0  0  0  0  0
  1  2  1  0
  2  3  2  0
  2  4  1  0
  4  5  1  6
  4  6  1  0
  6  7  1  0
  7  8  1  0
  8  9  1  0
  9 10  1  0
 10 11  2  0
 12 10  1  6
 12 13  1  0
 13 14  1  0
 14 15  1  0
 15 16  2  0
 16 17  1  0
 17 18  2  0
 18 19  1  0
 19 20  2  0
  9 21  1  0
 21  4  1  0
 20 12  1  0
 20 15  1  0
M  END
>  <alias>  (64) 
None

>  <Experiment code>  (64) 
nan

>  <CrystalformSites upload name>  (64) 
nan

>  <inchikey>  (64) 
ZPPSFBXZVAZURQ-ABAIWWIYSA-N

>  <Crystalforms upload name>  (64) 
nan

>  <Quatassemblies upload name>  (64) 
nan

>  <ConformerSites alias>  (64) 
nan

>  <ConformerSites short tag>  (64) 
nan

>  <Crystalforms short tag>  (64) 
nan

>  <Centroid res>  (64) 
nan

>  <Quatassemblies short tag>  (64) 
nan

>  <observation_longname>  (64) 
nan

>  <name>  (64) 
ZPPSFBXZVAZURQ-ABAIWWIYSA-N

>  <CanonSites upload name>  (64) 
nan

>  <tags>  (64) 
[]

>  <energy_score>  (64) 
138.119956

>  <original SMILES>  (64) 
NC(=O)[C@]1(N)CCCN(C(=O)[C@@H]2CSc3ccccc32)C1

>  <ref_mols>  (64) 
A4386a

>  <Pose>  (64) 
nan

>  <distance_score>  (64) 
1.434679

>  <ConformerSites upload name>  (64) 
nan

>  <HIPPO Pose ID>  (64) 
208275

>  <Crystalforms alias>  (64) 
nan

>  <original ID>  (64) 
ZPPSFBXZVAZURQ-ABAIWWIYSA-N

>  <CanonSites alias>  (64) 
nan

>  <CrystalformSites alias>  (64) 
nan

>  <ref_pdb>  (64) 
A4386a

>  <CanonSites short tag>  (64) 
nan

>  <Quatassemblies alias>  (64) 
nan

>  <HIPPO Compound ID>  (64) 
122880

>  <CrystalformSites short tag>  (64) 
nan

$$$$
ZPPSFBXZVAZURQ-NHYWBVRUSA-N
     RDKit          3D

 21 23  0  0  0  0  0  0  0  0999 V2000
   10.4883   14.8507   19.4701 N   0  0  0  0  0  0  0  0  0  0  0  0
   10.1916   15.9671   20.3364 C   0  0  0  0  0  0  0  0  0  0  0  0
    9.8920   17.1019   20.0751 O   0  0  0  0  0  0  0  0  0  0  0  0
   10.3917   15.6996   21.8980 C   0  0  2  0  0  0  0  0  0  0  0  0
   11.2610   16.8217   22.3744 N   0  0  0  0  0  0  0  0  0  0  0  0
   11.0867   14.4279   22.3595 C   0  0  0  0  0  0  0  0  0  0  0  0
   11.0431   14.3725   23.8742 C   0  0  0  0  0  0  0  0  0  0  0  0
    9.6896   14.9245   24.3355 C   0  0  0  0  0  0  0  0  0  0  0  0
    8.5390   14.5491   23.3951 N   0  0  0  0  0  0  0  0  0  0  0  0
    7.3498   14.3146   24.1452 C   0  0  0  0  0  0  0  0  0  0  0  0
    6.4686   15.0662   24.4659 O   0  0  0  0  0  0  0  0  0  0  0  0
    7.2341   12.8072   24.4532 C   0  0  1  0  0  0  0  0  0  0  0  0
    8.4854   11.9222   24.3831 C   0  0  0  0  0  0  0  0  0  0  0  0
    7.9396   10.2670   24.9033 S   0  0  0  0  0  0  0  0  0  0  0  0
    6.6631   10.9624   25.9136 C   0  0  0  0  0  0  0  0  0  0  0  0
    5.8921   10.2687   26.8332 C   0  0  0  0  0  0  0  0  0  0  0  0
    4.9706   10.9728   27.6030 C   0  0  0  0  0  0  0  0  0  0  0  0
    4.8129   12.3497   27.4206 C   0  0  0  0  0  0  0  0  0  0  0  0
    5.5538   13.0317   26.4497 C   0  0  0  0  0  0  0  0  0  0  0  0
    6.4844   12.3361   25.6861 C   0  0  0  0  0  0  0  0  0  0  0  0
    9.0244   15.7954   22.6601 C   0  0  0  0  0  0  0  0  0  0  0  0
  1  2  1  0
  2  3  2  0
  2  4  1  0
  4  5  1  1
  4  6  1  0
  6  7  1  0
  7  8  1  0
  8  9  1  0
  9 10  1  0
 10 11  2  0
 12 10  1  1
 12 13  1  0
 13 14  1  0
 14 15  1  0
 15 16  2  0
 16 17  1  0
 17 18  2  0
 18 19  1  0
 19 20  2  0
  9 21  1  0
 21  4  1  0
 20 12  1  0
 20 15  1  0
M  END
>  <alias>  (65) 
None

>  <Experiment code>  (65) 
nan

>  <CrystalformSites upload name>  (65) 
nan

>  <inchikey>  (65) 
ZPPSFBXZVAZURQ-NHYWBVRUSA-N

>  <Crystalforms upload name>  (65) 
nan

>  <Quatassemblies upload name>  (65) 
nan

>  <ConformerSites alias>  (65) 
nan

>  <ConformerSites short tag>  (65) 
nan

>  <Crystalforms short tag>  (65) 
nan

>  <Centroid res>  (65) 
nan

>  <Quatassemblies short tag>  (65) 
nan

>  <observation_longname>  (65) 
nan

>  <name>  (65) 
ZPPSFBXZVAZURQ-NHYWBVRUSA-N

>  <CanonSites upload name>  (65) 
nan

>  <tags>  (65) 
[]

>  <energy_score>  (65) 
176.63479

>  <original SMILES>  (65) 
NC(=O)[C@]1(N)CCCN(C(=O)[C@H]2CSc3ccccc32)C1

>  <ref_mols>  (65) 
A4386a

>  <Pose>  (65) 
nan

>  <distance_score>  (65) 
1.546135

>  <ConformerSites upload name>  (65) 
nan

>  <HIPPO Pose ID>  (65) 
208276

>  <Crystalforms alias>  (65) 
nan

>  <original ID>  (65) 
ZPPSFBXZVAZURQ-NHYWBVRUSA-N

>  <CanonSites alias>  (65) 
nan

>  <CrystalformSites alias>  (65) 
nan

>  <ref_pdb>  (65) 
A4386a

>  <CanonSites short tag>  (65) 
nan

>  <Quatassemblies alias>  (65) 
nan

>  <HIPPO Compound ID>  (65) 
122880

>  <CrystalformSites short tag>  (65) 
nan

$$$$
ZPPSFBXZVAZURQ-IAQYHMDHSA-N
     RDKit          3D

 21 23  0  0  0  0  0  0  0  0999 V2000
   10.4712   14.7244   19.0984 N   0  0  0  0  0  0  0  0  0  0  0  0
   10.0303   15.9226   19.7762 C   0  0  0  0  0  0  0  0  0  0  0  0
    9.8735   17.0353   19.3684 O   0  0  0  0  0  0  0  0  0  0  0  0
    9.8672   15.5798   21.2711 C   0  0  1  0  0  0  0  0  0  0  0  0
    9.3328   14.1883   21.4060 N   0  0  0  0  0  0  0  0  0  0  0  0
   11.2893   15.6146   21.8408 C   0  0  0  0  0  0  0  0  0  0  0  0
   11.1981   15.5601   23.3379 C   0  0  0  0  0  0  0  0  0  0  0  0
   10.0674   16.5079   23.7453 C   0  0  0  0  0  0  0  0  0  0  0  0
    8.6705   15.9265   23.4992 N   0  0  0  0  0  0  0  0  0  0  0  0
    7.7642   16.3518   24.5311 C   0  0  0  0  0  0  0  0  0  0  0  0
    7.0419   17.3138   24.5903 O   0  0  0  0  0  0  0  0  0  0  0  0
    7.6694   15.3492   25.7132 C   0  0  2  0  0  0  0  0  0  0  0  0
    8.6912   15.6785   26.8033 C   0  0  0  0  0  0  0  0  0  0  0  0
   10.1778   14.6850   26.4556 S   0  0  0  0  0  0  0  0  0  0  0  0
    9.2485   13.5406   25.4748 C   0  0  0  0  0  0  0  0  0  0  0  0
    9.7099   12.3722   24.9094 C   0  0  0  0  0  0  0  0  0  0  0  0
    8.7910   11.4385   24.4487 C   0  0  0  0  0  0  0  0  0  0  0  0
    7.4314   11.7333   24.5096 C   0  0  0  0  0  0  0  0  0  0  0  0
    6.9843   12.9987   24.8884 C   0  0  0  0  0  0  0  0  0  0  0  0
    7.9162   13.9107   25.3518 C   0  0  0  0  0  0  0  0  0  0  0  0
    8.9292   16.4952   22.0896 C   0  0  0  0  0  0  0  0  0  0  0  0
  1  2  1  0
  2  3  2  0
  2  4  1  0
  4  5  1  6
  4  6  1  0
  6  7  1  0
  7  8  1  0
  8  9  1  0
  9 10  1  0
 10 11  2  0
 12 10  1  6
 12 13  1  0
 13 14  1  0
 14 15  1  0
 15 16  2  0
 16 17  1  0
 17 18  2  0
 18 19  1  0
 19 20  2  0
  9 21  1  0
 21  4  1  0
 20 12  1  0
 20 15  1  0
M  END
>  <alias>  (66) 
None

>  <Experiment code>  (66) 
nan

>  <CrystalformSites upload name>  (66) 
nan

>  <inchikey>  (66) 
ZPPSFBXZVAZURQ-IAQYHMDHSA-N

>  <Crystalforms upload name>  (66) 
nan

>  <Quatassemblies upload name>  (66) 
nan

>  <ConformerSites alias>  (66) 
nan

>  <ConformerSites short tag>  (66) 
nan

>  <Crystalforms short tag>  (66) 
nan

>  <Centroid res>  (66) 
nan

>  <Quatassemblies short tag>  (66) 
nan

>  <observation_longname>  (66) 
nan

>  <name>  (66) 
ZPPSFBXZVAZURQ-IAQYHMDHSA-N

>  <CanonSites upload name>  (66) 
nan

>  <tags>  (66) 
[]

>  <energy_score>  (66) 
-14.680087

>  <original SMILES>  (66) 
NC(=O)[C@@]1(N)CCCN(C(=O)[C@@H]2CSc3ccccc32)C1

>  <ref_mols>  (66) 
A4386a

>  <Pose>  (66) 
nan

>  <distance_score>  (66) 
2.928676

>  <ConformerSites upload name>  (66) 
nan

>  <HIPPO Pose ID>  (66) 
208277

>  <Crystalforms alias>  (66) 
nan

>  <original ID>  (66) 
ZPPSFBXZVAZURQ-IAQYHMDHSA-N

>  <CanonSites alias>  (66) 
nan

>  <CrystalformSites alias>  (66) 
nan

>  <ref_pdb>  (66) 
A4386a

>  <CanonSites short tag>  (66) 
nan

>  <Quatassemblies alias>  (66) 
nan

>  <HIPPO Compound ID>  (66) 
122880

>  <CrystalformSites short tag>  (66) 
nan

$$$$
DIHBGMGXKWDIPC-QWHCGFSZSA-N
     RDKit          3D

 21 23  0  0  0  0  0  0  0  0999 V2000
    9.2574    9.1014   23.5627 C   0  0  0  0  0  0  0  0  0  0  0  0
    9.0884   10.8793   23.8811 S   0  0  0  0  0  0  0  0  0  0  0  0
    7.7431   11.0155   25.0631 C   0  0  0  0  0  0  0  0  0  0  0  0
    7.0038    9.8959   25.4682 C   0  0  0  0  0  0  0  0  0  0  0  0
    5.9195   10.0089   26.3420 C   0  0  0  0  0  0  0  0  0  0  0  0
    5.5479   11.2543   26.8242 C   0  0  0  0  0  0  0  0  0  0  0  0
    6.2833   12.3778   26.4603 C   0  0  0  0  0  0  0  0  0  0  0  0
    7.3995   12.2746   25.6062 C   0  0  0  0  0  0  0  0  0  0  0  0
    8.2299   13.5223   25.4038 C   0  0  0  0  0  0  0  0  0  0  0  0
    7.6585   14.5980   24.4829 C   0  0  0  0  0  0  0  0  0  0  0  0
    6.6803   15.2061   24.7224 O   0  0  0  0  0  0  0  0  0  0  0  0
    8.6507   14.7404   23.3376 N   0  0  0  0  0  0  0  0  0  0  0  0
    9.7717   15.7057   23.6976 C   0  0  0  0  0  0  0  0  0  0  0  0
   11.1310   15.3312   23.0686 C   0  0  0  0  0  0  0  0  0  0  0  0
   11.0406   15.8294   21.6619 C   0  0  1  0  0  0  0  0  0  0  0  0
   11.9928   15.3787   20.5868 C   0  0  0  0  0  0  0  0  0  0  0  0
   11.2466   15.6120   19.3850 N   0  0  0  0  0  0  0  0  0  0  0  0
    9.9241   15.8664   19.7090 C   0  0  0  0  0  0  0  0  0  0  0  0
    9.1655   16.4532   18.9757 O   0  0  0  0  0  0  0  0  0  0  0  0
    9.7310   15.3228   21.0999 C   0  0  2  0  0  0  0  0  0  0  0  0
    8.6215   15.6614   22.0753 C   0  0  0  0  0  0  0  0  0  0  0  0
  1  2  1  0
  2  3  1  0
  3  4  2  0
  4  5  1  0
  5  6  2  0
  6  7  1  0
  7  8  2  0
  8  9  1  0
  9 10  1  0
 10 11  2  0
 10 12  1  0
 12 13  1  0
 13 14  1  0
 15 14  1  1
 15 16  1  0
 16 17  1  0
 17 18  1  0
 18 19  2  0
 18 20  1  0
 20 21  1  1
  8  3  1  0
 21 12  1  0
 20 15  1  0
M  END
>  <alias>  (67) 
None

>  <Experiment code>  (67) 
nan

>  <CrystalformSites upload name>  (67) 
nan

>  <inchikey>  (67) 
DIHBGMGXKWDIPC-QWHCGFSZSA-N

>  <Crystalforms upload name>  (67) 
nan

>  <Quatassemblies upload name>  (67) 
nan

>  <ConformerSites alias>  (67) 
nan

>  <ConformerSites short tag>  (67) 
nan

>  <Crystalforms short tag>  (67) 
nan

>  <Centroid res>  (67) 
nan

>  <Quatassemblies short tag>  (67) 
nan

>  <observation_longname>  (67) 
nan

>  <name>  (67) 
DIHBGMGXKWDIPC-QWHCGFSZSA-N

>  <CanonSites upload name>  (67) 
nan

>  <tags>  (67) 
[]

>  <energy_score>  (67) 
-120.882974

>  <original SMILES>  (67) 
CSc1ccccc1CC(=O)N1CC[C@H]2CNC(=O)[C@@H]2C1

>  <ref_mols>  (67) 
A4386a

>  <Pose>  (67) 
nan

>  <distance_score>  (67) 
0.825901

>  <ConformerSites upload name>  (67) 
nan

>  <HIPPO Pose ID>  (67) 
208412

>  <Crystalforms alias>  (67) 
nan

>  <original ID>  (67) 
DIHBGMGXKWDIPC-QWHCGFSZSA-N

>  <CanonSites alias>  (67) 
nan

>  <CrystalformSites alias>  (67) 
nan

>  <ref_pdb>  (67) 
A4386a

>  <CanonSites short tag>  (67) 
nan

>  <Quatassemblies alias>  (67) 
nan

>  <HIPPO Compound ID>  (67) 
122911

>  <CrystalformSites short tag>  (67) 
nan

$$$$
VVIDWLPPPADVQU-WCQYABFASA-N
     RDKit          3D

 21 22  0  0  0  0  0  0  0  0999 V2000
    9.2401    8.9718   23.5229 C   0  0  0  0  0  0  0  0  0  0  0  0
    9.0935   10.7420   23.8776 S   0  0  0  0  0  0  0  0  0  0  0  0
    7.7281   10.8707   25.0322 C   0  0  0  0  0  0  0  0  0  0  0  0
    7.0050    9.7585   25.4713 C   0  0  0  0  0  0  0  0  0  0  0  0
    5.9100    9.8847   26.3331 C   0  0  0  0  0  0  0  0  0  0  0  0
    5.5144   11.1370   26.7749 C   0  0  0  0  0  0  0  0  0  0  0  0
    6.2342   12.2553   26.3752 C   0  0  0  0  0  0  0  0  0  0  0  0
    7.3571   12.1337   25.5304 C   0  0  0  0  0  0  0  0  0  0  0  0
    8.1633   13.3806   25.2633 C   0  0  0  0  0  0  0  0  0  0  0  0
    7.6865   14.2683   24.1128 C   0  0  0  0  0  0  0  0  0  0  0  0
    6.5474   14.6534   24.0826 O   0  0  0  0  0  0  0  0  0  0  0  0
    8.7939   14.5534   23.2380 N   0  0  0  0  0  0  0  0  0  0  0  0
    8.8524   15.3538   21.9087 C   0  0  0  0  0  0  0  0  0  0  0  0
   10.1725   15.8720   21.2873 C   0  0  2  0  0  0  0  0  0  0  0  0
   10.2525   15.8818   19.7461 C   0  0  0  0  0  0  0  0  0  0  0  0
   10.6098   14.6152   19.1752 N   0  0  0  0  0  0  0  0  0  0  0  0
   10.0744   16.9481   19.2293 O   0  0  0  0  0  0  0  0  0  0  0  0
   11.3496   15.2726   22.0155 C   0  0  0  0  0  0  0  0  0  0  0  0
   11.0850   15.4944   23.4878 C   0  0  0  0  0  0  0  0  0  0  0  0
    9.5825   15.7854   23.7570 C   0  0  2  0  0  0  0  0  0  0  0  0
    9.5334   16.0105   25.2962 C   0  0  0  0  0  0  0  0  0  0  0  0
  1  2  1  0
  2  3  1  0
  3  4  2  0
  4  5  1  0
  5  6  2  0
  6  7  1  0
  7  8  2  0
  8  9  1  0
  9 10  1  0
 10 11  2  0
 10 12  1  0
 12 13  1  0
 13 14  1  0
 14 15  1  6
 15 16  1  0
 15 17  2  0
 14 18  1  0
 18 19  1  0
 19 20  1  0
 20 21  1  1
  8  3  1  0
 20 12  1  0
M  END
>  <alias>  (68) 
None

>  <Experiment code>  (68) 
nan

>  <CrystalformSites upload name>  (68) 
nan

>  <inchikey>  (68) 
VVIDWLPPPADVQU-WCQYABFASA-N

>  <Crystalforms upload name>  (68) 
nan

>  <Quatassemblies upload name>  (68) 
nan

>  <ConformerSites alias>  (68) 
nan

>  <ConformerSites short tag>  (68) 
nan

>  <Crystalforms short tag>  (68) 
nan

>  <Centroid res>  (68) 
nan

>  <Quatassemblies short tag>  (68) 
nan

>  <observation_longname>  (68) 
nan

>  <name>  (68) 
VVIDWLPPPADVQU-WCQYABFASA-N

>  <CanonSites upload name>  (68) 
nan

>  <tags>  (68) 
[]

>  <energy_score>  (68) 
180.527276

>  <original SMILES>  (68) 
CSc1ccccc1CC(=O)N1C[C@H](C(N)=O)CC[C@@H]1C

>  <ref_mols>  (68) 
A4386a

>  <Pose>  (68) 
nan

>  <distance_score>  (68) 
0.597353

>  <ConformerSites upload name>  (68) 
nan

>  <HIPPO Pose ID>  (68) 
208415

>  <Crystalforms alias>  (68) 
nan

>  <original ID>  (68) 
VVIDWLPPPADVQU-WCQYABFASA-N

>  <CanonSites alias>  (68) 
nan

>  <CrystalformSites alias>  (68) 
nan

>  <ref_pdb>  (68) 
A4386a

>  <CanonSites short tag>  (68) 
nan

>  <Quatassemblies alias>  (68) 
nan

>  <HIPPO Compound ID>  (68) 
122913

>  <CrystalformSites short tag>  (68) 
nan

$$$$
VVIDWLPPPADVQU-AAEUAGOBSA-N
     RDKit          3D

 21 22  0  0  0  0  0  0  0  0999 V2000
    9.2386    8.9232   23.5234 C   0  0  0  0  0  0  0  0  0  0  0  0
    9.0931   10.6809   23.9170 S   0  0  0  0  0  0  0  0  0  0  0  0
    7.6951   10.7917   25.0297 C   0  0  0  0  0  0  0  0  0  0  0  0
    7.0063    9.6727   25.4992 C   0  0  0  0  0  0  0  0  0  0  0  0
    5.9003    9.7892   26.3496 C   0  0  0  0  0  0  0  0  0  0  0  0
    5.4641   11.0373   26.7594 C   0  0  0  0  0  0  0  0  0  0  0  0
    6.1422   12.1643   26.3203 C   0  0  0  0  0  0  0  0  0  0  0  0
    7.2648   12.0533   25.4719 C   0  0  0  0  0  0  0  0  0  0  0  0
    7.9882   13.3247   25.1069 C   0  0  0  0  0  0  0  0  0  0  0  0
    7.6629   13.9080   23.7221 C   0  0  0  0  0  0  0  0  0  0  0  0
    6.5396   13.8901   23.2942 O   0  0  0  0  0  0  0  0  0  0  0  0
    8.8783   14.4034   23.1343 N   0  0  0  0  0  0  0  0  0  0  0  0
    9.1522   14.9559   21.7461 C   0  0  0  0  0  0  0  0  0  0  0  0
   10.5973   15.2743   21.3307 C   0  0  1  0  0  0  0  0  0  0  0  0
   10.7668   15.5221   19.8064 C   0  0  0  0  0  0  0  0  0  0  0  0
   10.0087   16.6627   19.3260 N   0  0  0  0  0  0  0  0  0  0  0  0
   11.4875   14.7615   19.2214 O   0  0  0  0  0  0  0  0  0  0  0  0
   11.1432   16.4101   22.1644 C   0  0  0  0  0  0  0  0  0  0  0  0
   10.6141   16.2224   23.5655 C   0  0  0  0  0  0  0  0  0  0  0  0
    9.0989   15.9058   23.5307 C   0  0  2  0  0  0  0  0  0  0  0  0
    8.6304   16.1936   24.9870 C   0  0  0  0  0  0  0  0  0  0  0  0
  1  2  1  0
  2  3  1  0
  3  4  2  0
  4  5  1  0
  5  6  2  0
  6  7  1  0
  7  8  2  0
  8  9  1  0
  9 10  1  0
 10 11  2  0
 10 12  1  0
 12 13  1  0
 13 14  1  0
 14 15  1  6
 15 16  1  0
 15 17  2  0
 14 18  1  0
 18 19  1  0
 19 20  1  0
 20 21  1  1
  8  3  1  0
 20 12  1  0
M  END
>  <alias>  (69) 
None

>  <Experiment code>  (69) 
nan

>  <CrystalformSites upload name>  (69) 
nan

>  <inchikey>  (69) 
VVIDWLPPPADVQU-AAEUAGOBSA-N

>  <Crystalforms upload name>  (69) 
nan

>  <Quatassemblies upload name>  (69) 
nan

>  <ConformerSites alias>  (69) 
nan

>  <ConformerSites short tag>  (69) 
nan

>  <Crystalforms short tag>  (69) 
nan

>  <Centroid res>  (69) 
nan

>  <Quatassemblies short tag>  (69) 
nan

>  <observation_longname>  (69) 
nan

>  <name>  (69) 
VVIDWLPPPADVQU-AAEUAGOBSA-N

>  <CanonSites upload name>  (69) 
nan

>  <tags>  (69) 
[]

>  <energy_score>  (69) 
147.432275

>  <original SMILES>  (69) 
CSc1ccccc1CC(=O)N1C[C@@H](C(N)=O)CC[C@@H]1C

>  <ref_mols>  (69) 
A4386a

>  <Pose>  (69) 
nan

>  <distance_score>  (69) 
0.580541

>  <ConformerSites upload name>  (69) 
nan

>  <HIPPO Pose ID>  (69) 
208416

>  <Crystalforms alias>  (69) 
nan

>  <original ID>  (69) 
VVIDWLPPPADVQU-AAEUAGOBSA-N

>  <CanonSites alias>  (69) 
nan

>  <CrystalformSites alias>  (69) 
nan

>  <ref_pdb>  (69) 
A4386a

>  <CanonSites short tag>  (69) 
nan

>  <Quatassemblies alias>  (69) 
nan

>  <HIPPO Compound ID>  (69) 
122913

>  <CrystalformSites short tag>  (69) 
nan

$$$$
VVIDWLPPPADVQU-DGCLKSJQSA-N
     RDKit          3D

 21 22  0  0  0  0  0  0  0  0999 V2000
    9.2127    8.7567   23.5053 C   0  0  0  0  0  0  0  0  0  0  0  0
    9.2263   10.5255   23.8382 S   0  0  0  0  0  0  0  0  0  0  0  0
    7.8521   10.7924   24.9520 C   0  0  0  0  0  0  0  0  0  0  0  0
    7.1040    9.7488   25.5024 C   0  0  0  0  0  0  0  0  0  0  0  0
    6.0323    9.9894   26.3676 C   0  0  0  0  0  0  0  0  0  0  0  0
    5.6932   11.2910   26.7036 C   0  0  0  0  0  0  0  0  0  0  0  0
    6.4271   12.3462   26.1723 C   0  0  0  0  0  0  0  0  0  0  0  0
    7.5118   12.1103   25.3041 C   0  0  0  0  0  0  0  0  0  0  0  0
    8.2519   13.3028   24.7427 C   0  0  0  0  0  0  0  0  0  0  0  0
    7.8307   13.6897   23.3167 C   0  0  0  0  0  0  0  0  0  0  0  0
    6.7189   13.4723   22.9159 O   0  0  0  0  0  0  0  0  0  0  0  0
    8.9249   14.3834   22.6997 N   0  0  0  0  0  0  0  0  0  0  0  0
    9.0677   14.9670   21.2961 C   0  0  0  0  0  0  0  0  0  0  0  0
   10.1841   15.9286   20.8528 C   0  0  2  0  0  0  0  0  0  0  0  0
   10.8166   15.7057   19.4658 C   0  0  0  0  0  0  0  0  0  0  0  0
   11.4818   14.4406   19.3394 N   0  0  0  0  0  0  0  0  0  0  0  0
   10.7449   16.6289   18.7056 O   0  0  0  0  0  0  0  0  0  0  0  0
   11.1749   16.0479   21.9788 C   0  0  0  0  0  0  0  0  0  0  0  0
   10.3275   16.4263   23.1786 C   0  0  0  0  0  0  0  0  0  0  0  0
    8.8875   15.8499   23.0744 C   0  0  1  0  0  0  0  0  0  0  0  0
    7.6995   16.7615   22.6739 C   0  0  0  0  0  0  0  0  0  0  0  0
  1  2  1  0
  2  3  1  0
  3  4  2  0
  4  5  1  0
  5  6  2  0
  6  7  1  0
  7  8  2  0
  8  9  1  0
  9 10  1  0
 10 11  2  0
 10 12  1  0
 12 13  1  0
 13 14  1  0
 14 15  1  6
 15 16  1  0
 15 17  2  0
 14 18  1  0
 18 19  1  0
 19 20  1  0
 20 21  1  6
  8  3  1  0
 20 12  1  0
M  END
>  <alias>  (70) 
None

>  <Experiment code>  (70) 
nan

>  <CrystalformSites upload name>  (70) 
nan

>  <inchikey>  (70) 
VVIDWLPPPADVQU-DGCLKSJQSA-N

>  <Crystalforms upload name>  (70) 
nan

>  <Quatassemblies upload name>  (70) 
nan

>  <ConformerSites alias>  (70) 
nan

>  <ConformerSites short tag>  (70) 
nan

>  <Crystalforms short tag>  (70) 
nan

>  <Centroid res>  (70) 
nan

>  <Quatassemblies short tag>  (70) 
nan

>  <observation_longname>  (70) 
nan

>  <name>  (70) 
VVIDWLPPPADVQU-DGCLKSJQSA-N

>  <CanonSites upload name>  (70) 
nan

>  <tags>  (70) 
[]

>  <energy_score>  (70) 
113.52903

>  <original SMILES>  (70) 
CSc1ccccc1CC(=O)N1C[C@H](C(N)=O)CC[C@H]1C

>  <ref_mols>  (70) 
A4386a

>  <Pose>  (70) 
nan

>  <distance_score>  (70) 
0.71852

>  <ConformerSites upload name>  (70) 
nan

>  <HIPPO Pose ID>  (70) 
208417

>  <Crystalforms alias>  (70) 
nan

>  <original ID>  (70) 
VVIDWLPPPADVQU-DGCLKSJQSA-N

>  <CanonSites alias>  (70) 
nan

>  <CrystalformSites alias>  (70) 
nan

>  <ref_pdb>  (70) 
A4386a

>  <CanonSites short tag>  (70) 
nan

>  <Quatassemblies alias>  (70) 
nan

>  <HIPPO Compound ID>  (70) 
122913

>  <CrystalformSites short tag>  (70) 
nan

$$$$
VVIDWLPPPADVQU-YPMHNXCESA-N
     RDKit          3D

 21 22  0  0  0  0  0  0  0  0999 V2000
    9.1505    8.8054   23.5862 C   0  0  0  0  0  0  0  0  0  0  0  0
    9.0818   10.5806   23.8919 S   0  0  0  0  0  0  0  0  0  0  0  0
    7.7382   10.8087   25.0613 C   0  0  0  0  0  0  0  0  0  0  0  0
    6.9146    9.7612   25.4755 C   0  0  0  0  0  0  0  0  0  0  0  0
    5.8366    9.9681   26.3416 C   0  0  0  0  0  0  0  0  0  0  0  0
    5.5547   11.2452   26.8028 C   0  0  0  0  0  0  0  0  0  0  0  0
    6.3827   12.3001   26.4368 C   0  0  0  0  0  0  0  0  0  0  0  0
    7.4954   12.0872   25.6000 C   0  0  0  0  0  0  0  0  0  0  0  0
    8.4810   13.2071   25.4391 C   0  0  0  0  0  0  0  0  0  0  0  0
    8.0988   14.4128   24.6196 C   0  0  0  0  0  0  0  0  0  0  0  0
    7.2834   15.1864   25.0494 O   0  0  0  0  0  0  0  0  0  0  0  0
    8.9016   14.4672   23.4333 N   0  0  0  0  0  0  0  0  0  0  0  0
    8.9001   15.4598   22.2817 C   0  0  0  0  0  0  0  0  0  0  0  0
    9.8723   15.3752   21.0787 C   0  0  1  0  0  0  0  0  0  0  0  0
    9.7264   16.6396   20.2136 C   0  0  0  0  0  0  0  0  0  0  0  0
   10.0187   16.3859   18.8215 N   0  0  0  0  0  0  0  0  0  0  0  0
    9.4747   17.6625   20.7832 O   0  0  0  0  0  0  0  0  0  0  0  0
   11.3258   15.3338   21.5081 C   0  0  0  0  0  0  0  0  0  0  0  0
   11.4007   14.6925   22.8613 C   0  0  0  0  0  0  0  0  0  0  0  0
   10.2262   15.1419   23.7343 C   0  0  1  0  0  0  0  0  0  0  0  0
   10.2935   16.5605   24.2875 C   0  0  0  0  0  0  0  0  0  0  0  0
  1  2  1  0
  2  3  1  0
  3  4  2  0
  4  5  1  0
  5  6  2  0
  6  7  1  0
  7  8  2  0
  8  9  1  0
  9 10  1  0
 10 11  2  0
 10 12  1  0
 12 13  1  0
 13 14  1  0
 14 15  1  6
 15 16  1  0
 15 17  2  0
 14 18  1  0
 18 19  1  0
 19 20  1  0
 20 21  1  6
  8  3  1  0
 20 12  1  0
M  END
>  <alias>  (71) 
None

>  <Experiment code>  (71) 
nan

>  <CrystalformSites upload name>  (71) 
nan

>  <inchikey>  (71) 
VVIDWLPPPADVQU-YPMHNXCESA-N

>  <Crystalforms upload name>  (71) 
nan

>  <Quatassemblies upload name>  (71) 
nan

>  <ConformerSites alias>  (71) 
nan

>  <ConformerSites short tag>  (71) 
nan

>  <Crystalforms short tag>  (71) 
nan

>  <Centroid res>  (71) 
nan

>  <Quatassemblies short tag>  (71) 
nan

>  <observation_longname>  (71) 
nan

>  <name>  (71) 
VVIDWLPPPADVQU-YPMHNXCESA-N

>  <CanonSites upload name>  (71) 
nan

>  <tags>  (71) 
[]

>  <energy_score>  (71) 
206.541251

>  <original SMILES>  (71) 
CSc1ccccc1CC(=O)N1C[C@@H](C(N)=O)CC[C@H]1C

>  <ref_mols>  (71) 
A4386a

>  <Pose>  (71) 
nan

>  <distance_score>  (71) 
0.955732

>  <ConformerSites upload name>  (71) 
nan

>  <HIPPO Pose ID>  (71) 
208418

>  <Crystalforms alias>  (71) 
nan

>  <original ID>  (71) 
VVIDWLPPPADVQU-YPMHNXCESA-N

>  <CanonSites alias>  (71) 
nan

>  <CrystalformSites alias>  (71) 
nan

>  <ref_pdb>  (71) 
A4386a

>  <CanonSites short tag>  (71) 
nan

>  <Quatassemblies alias>  (71) 
nan

>  <HIPPO Compound ID>  (71) 
122913

>  <CrystalformSites short tag>  (71) 
nan

$$$$
VWQRAZBSLICPHQ-OAHLLOKOSA-N
     RDKit          3D

 21 22  0  0  0  0  0  0  0  0999 V2000
    9.1908    9.1959   23.5935 C   0  0  0  0  0  0  0  0  0  0  0  0
    8.9871   10.9594   23.9663 S   0  0  0  0  0  0  0  0  0  0  0  0
    7.6112   11.0324   25.1190 C   0  0  0  0  0  0  0  0  0  0  0  0
    6.9604    9.8803   25.5776 C   0  0  0  0  0  0  0  0  0  0  0  0
    5.8749    9.9518   26.4566 C   0  0  0  0  0  0  0  0  0  0  0  0
    5.4199   11.1835   26.9005 C   0  0  0  0  0  0  0  0  0  0  0  0
    6.0570   12.3415   26.4706 C   0  0  0  0  0  0  0  0  0  0  0  0
    7.1593   12.2835   25.5936 C   0  0  0  0  0  0  0  0  0  0  0  0
    7.8227   13.5917   25.2245 C   0  0  0  0  0  0  0  0  0  0  0  0
    7.4674   14.1352   23.8361 C   0  0  0  0  0  0  0  0  0  0  0  0
    6.3282   14.2133   23.4627 O   0  0  0  0  0  0  0  0  0  0  0  0
    8.6800   14.5696   23.2161 N   0  0  0  0  0  0  0  0  0  0  0  0
    9.0098   15.9833   23.6504 C   0  0  0  0  0  0  0  0  0  0  0  0
   10.5197   16.2339   23.7059 C   0  0  0  0  0  0  0  0  0  0  0  0
   11.0215   16.4708   22.3002 C   0  0  0  0  0  0  0  0  0  0  0  0
   10.4023   15.3965   21.4374 C   0  0  2  0  0  0  0  0  0  0  0  0
   11.0942   14.2296   21.6858 F   0  0  0  0  0  0  0  0  0  0  0  0
   10.4978   15.7522   19.9450 C   0  0  0  0  0  0  0  0  0  0  0  0
   11.0825   14.6308   19.2522 N   0  0  0  0  0  0  0  0  0  0  0  0
   10.1523   16.8248   19.5412 O   0  0  0  0  0  0  0  0  0  0  0  0
    8.9333   15.1670   21.8371 C   0  0  0  0  0  0  0  0  0  0  0  0
  1  2  1  0
  2  3  1  0
  3  4  2  0
  4  5  1  0
  5  6  2  0
  6  7  1  0
  7  8  2  0
  8  9  1  0
  9 10  1  0
 10 11  2  0
 10 12  1  0
 12 13  1  0
 13 14  1  0
 14 15  1  0
 15 16  1  0
 16 17  1  6
 16 18  1  0
 18 19  1  0
 18 20  2  0
 16 21  1  0
  8  3  1  0
 21 12  1  0
M  END
>  <alias>  (72) 
None

>  <Experiment code>  (72) 
nan

>  <CrystalformSites upload name>  (72) 
nan

>  <inchikey>  (72) 
VWQRAZBSLICPHQ-OAHLLOKOSA-N

>  <Crystalforms upload name>  (72) 
nan

>  <Quatassemblies upload name>  (72) 
nan

>  <ConformerSites alias>  (72) 
nan

>  <ConformerSites short tag>  (72) 
nan

>  <Crystalforms short tag>  (72) 
nan

>  <Centroid res>  (72) 
nan

>  <Quatassemblies short tag>  (72) 
nan

>  <observation_longname>  (72) 
nan

>  <name>  (72) 
VWQRAZBSLICPHQ-OAHLLOKOSA-N

>  <CanonSites upload name>  (72) 
nan

>  <tags>  (72) 
[]

>  <energy_score>  (72) 
104.825705

>  <original SMILES>  (72) 
CSc1ccccc1CC(=O)N1CCC[C@](F)(C(N)=O)C1

>  <ref_mols>  (72) 
A4386a

>  <Pose>  (72) 
nan

>  <distance_score>  (72) 
0.989906

>  <ConformerSites upload name>  (72) 
nan

>  <HIPPO Pose ID>  (72) 
208419

>  <Crystalforms alias>  (72) 
nan

>  <original ID>  (72) 
VWQRAZBSLICPHQ-OAHLLOKOSA-N

>  <CanonSites alias>  (72) 
nan

>  <CrystalformSites alias>  (72) 
nan

>  <ref_pdb>  (72) 
A4386a

>  <CanonSites short tag>  (72) 
nan

>  <Quatassemblies alias>  (72) 
nan

>  <HIPPO Compound ID>  (72) 
122914

>  <CrystalformSites short tag>  (72) 
nan

$$$$
VWQRAZBSLICPHQ-HNNXBMFYSA-N
     RDKit          3D

 21 22  0  0  0  0  0  0  0  0999 V2000
    9.2586    8.8878   23.5232 C   0  0  0  0  0  0  0  0  0  0  0  0
    9.1937   10.6745   23.7768 S   0  0  0  0  0  0  0  0  0  0  0  0
    7.8606   10.9249   24.9448 C   0  0  0  0  0  0  0  0  0  0  0  0
    7.1142    9.8670   25.4775 C   0  0  0  0  0  0  0  0  0  0  0  0
    6.0579   10.0897   26.3650 C   0  0  0  0  0  0  0  0  0  0  0  0
    5.7312   11.3846   26.7392 C   0  0  0  0  0  0  0  0  0  0  0  0
    6.4678   12.4514   26.2324 C   0  0  0  0  0  0  0  0  0  0  0  0
    7.5426   12.2374   25.3462 C   0  0  0  0  0  0  0  0  0  0  0  0
    8.2982   13.4488   24.8377 C   0  0  0  0  0  0  0  0  0  0  0  0
    7.8165   13.9668   23.4758 C   0  0  0  0  0  0  0  0  0  0  0  0
    6.6543   13.9163   23.1755 O   0  0  0  0  0  0  0  0  0  0  0  0
    8.9314   14.5460   22.7869 N   0  0  0  0  0  0  0  0  0  0  0  0
    9.1228   15.9744   23.2207 C   0  0  0  0  0  0  0  0  0  0  0  0
   10.6299   16.2828   23.2938 C   0  0  0  0  0  0  0  0  0  0  0  0
   11.3088   15.9707   21.9665 C   0  0  0  0  0  0  0  0  0  0  0  0
   10.2171   16.0608   20.9216 C   0  0  1  0  0  0  0  0  0  0  0  0
    9.7674   17.3655   20.9981 F   0  0  0  0  0  0  0  0  0  0  0  0
   10.7082   15.7971   19.4537 C   0  0  0  0  0  0  0  0  0  0  0  0
   11.2726   14.4814   19.2507 N   0  0  0  0  0  0  0  0  0  0  0  0
   10.6283   16.7345   18.7098 O   0  0  0  0  0  0  0  0  0  0  0  0
    9.0246   15.1880   21.3917 C   0  0  0  0  0  0  0  0  0  0  0  0
  1  2  1  0
  2  3  1  0
  3  4  2  0
  4  5  1  0
  5  6  2  0
  6  7  1  0
  7  8  2  0
  8  9  1  0
  9 10  1  0
 10 11  2  0
 10 12  1  0
 12 13  1  0
 13 14  1  0
 14 15  1  0
 15 16  1  0
 16 17  1  6
 16 18  1  0
 18 19  1  0
 18 20  2  0
 16 21  1  0
  8  3  1  0
 21 12  1  0
M  END
>  <alias>  (73) 
None

>  <Experiment code>  (73) 
nan

>  <CrystalformSites upload name>  (73) 
nan

>  <inchikey>  (73) 
VWQRAZBSLICPHQ-HNNXBMFYSA-N

>  <Crystalforms upload name>  (73) 
nan

>  <Quatassemblies upload name>  (73) 
nan

>  <ConformerSites alias>  (73) 
nan

>  <ConformerSites short tag>  (73) 
nan

>  <Crystalforms short tag>  (73) 
nan

>  <Centroid res>  (73) 
nan

>  <Quatassemblies short tag>  (73) 
nan

>  <observation_longname>  (73) 
nan

>  <name>  (73) 
VWQRAZBSLICPHQ-HNNXBMFYSA-N

>  <CanonSites upload name>  (73) 
nan

>  <tags>  (73) 
[]

>  <energy_score>  (73) 
157.810012

>  <original SMILES>  (73) 
CSc1ccccc1CC(=O)N1CCC[C@@](F)(C(N)=O)C1

>  <ref_mols>  (73) 
A4386a

>  <Pose>  (73) 
nan

>  <distance_score>  (73) 
0.65472

>  <ConformerSites upload name>  (73) 
nan

>  <HIPPO Pose ID>  (73) 
208420

>  <Crystalforms alias>  (73) 
nan

>  <original ID>  (73) 
VWQRAZBSLICPHQ-HNNXBMFYSA-N

>  <CanonSites alias>  (73) 
nan

>  <CrystalformSites alias>  (73) 
nan

>  <ref_pdb>  (73) 
A4386a

>  <CanonSites short tag>  (73) 
nan

>  <Quatassemblies alias>  (73) 
nan

>  <HIPPO Compound ID>  (73) 
122914

>  <CrystalformSites short tag>  (73) 
nan

$$$$
MATXBLKTWRNYBE-OAHLLOKOSA-N
     RDKit          3D

 21 22  0  0  0  0  0  0  0  0999 V2000
    9.1828    9.0702   23.5379 C   0  0  0  0  0  0  0  0  0  0  0  0
    9.0704   10.8311   23.9501 S   0  0  0  0  0  0  0  0  0  0  0  0
    7.6896   10.9559   25.0900 C   0  0  0  0  0  0  0  0  0  0  0  0
    7.0038    9.8305   25.5602 C   0  0  0  0  0  0  0  0  0  0  0  0
    5.9192    9.9450   26.4359 C   0  0  0  0  0  0  0  0  0  0  0  0
    5.5026   11.1950   26.8664 C   0  0  0  0  0  0  0  0  0  0  0  0
    6.1746   12.3281   26.4229 C   0  0  0  0  0  0  0  0  0  0  0  0
    7.2731   12.2252   25.5456 C   0  0  0  0  0  0  0  0  0  0  0  0
    7.9593   13.5079   25.1290 C   0  0  0  0  0  0  0  0  0  0  0  0
    7.6240   13.9714   23.7078 C   0  0  0  0  0  0  0  0  0  0  0  0
    6.4952   13.9587   23.2961 O   0  0  0  0  0  0  0  0  0  0  0  0
    8.8271   14.4497   23.1040 N   0  0  0  0  0  0  0  0  0  0  0  0
    9.0547   15.9025   23.4741 C   0  0  0  0  0  0  0  0  0  0  0  0
   10.5404   16.2627   23.5450 C   0  0  0  0  0  0  0  0  0  0  0  0
   11.0554   16.4730   22.1393 C   0  0  0  0  0  0  0  0  0  0  0  0
   10.5476   15.3075   21.3114 C   0  0  2  0  0  0  0  0  0  0  0  0
   11.4296   14.1939   21.5546 O   0  0  0  0  0  0  0  0  0  0  0  0
   10.6309   15.6635   19.8082 C   0  0  0  0  0  0  0  0  0  0  0  0
   11.9783   15.4176   19.3497 N   0  0  0  0  0  0  0  0  0  0  0  0
    9.6715   16.0764   19.2238 O   0  0  0  0  0  0  0  0  0  0  0  0
    9.0877   14.9895   21.7113 C   0  0  0  0  0  0  0  0  0  0  0  0
  1  2  1  0
  2  3  1  0
  3  4  2  0
  4  5  1  0
  5  6  2  0
  6  7  1  0
  7  8  2  0
  8  9  1  0
  9 10  1  0
 10 11  2  0
 10 12  1  0
 12 13  1  0
 13 14  1  0
 14 15  1  0
 15 16  1  0
 16 17  1  6
 16 18  1  0
 18 19  1  0
 18 20  2  0
 16 21  1  0
  8  3  1  0
 21 12  1  0
M  END
>  <alias>  (74) 
None

>  <Experiment code>  (74) 
nan

>  <CrystalformSites upload name>  (74) 
nan

>  <inchikey>  (74) 
MATXBLKTWRNYBE-OAHLLOKOSA-N

>  <Crystalforms upload name>  (74) 
nan

>  <Quatassemblies upload name>  (74) 
nan

>  <ConformerSites alias>  (74) 
nan

>  <ConformerSites short tag>  (74) 
nan

>  <Crystalforms short tag>  (74) 
nan

>  <Centroid res>  (74) 
nan

>  <Quatassemblies short tag>  (74) 
nan

>  <observation_longname>  (74) 
nan

>  <name>  (74) 
MATXBLKTWRNYBE-OAHLLOKOSA-N

>  <CanonSites upload name>  (74) 
nan

>  <tags>  (74) 
[]

>  <energy_score>  (74) 
108.127706

>  <original SMILES>  (74) 
CSc1ccccc1CC(=O)N1CCC[C@](O)(C(N)=O)C1

>  <ref_mols>  (74) 
A4386a

>  <Pose>  (74) 
nan

>  <distance_score>  (74) 
0.891432

>  <ConformerSites upload name>  (74) 
nan

>  <HIPPO Pose ID>  (74) 
208439

>  <Crystalforms alias>  (74) 
nan

>  <original ID>  (74) 
MATXBLKTWRNYBE-OAHLLOKOSA-N

>  <CanonSites alias>  (74) 
nan

>  <CrystalformSites alias>  (74) 
nan

>  <ref_pdb>  (74) 
A4386a

>  <CanonSites short tag>  (74) 
nan

>  <Quatassemblies alias>  (74) 
nan

>  <HIPPO Compound ID>  (74) 
122922

>  <CrystalformSites short tag>  (74) 
nan

$$$$
MATXBLKTWRNYBE-HNNXBMFYSA-N
     RDKit          3D

 21 22  0  0  0  0  0  0  0  0999 V2000
    9.2512    8.9203   23.5072 C   0  0  0  0  0  0  0  0  0  0  0  0
    9.1668   10.7021   23.8056 S   0  0  0  0  0  0  0  0  0  0  0  0
    7.8253   10.9116   24.9726 C   0  0  0  0  0  0  0  0  0  0  0  0
    7.0961    9.8338   25.4866 C   0  0  0  0  0  0  0  0  0  0  0  0
    6.0316   10.0247   26.3726 C   0  0  0  0  0  0  0  0  0  0  0  0
    5.6800   11.3071   26.7665 C   0  0  0  0  0  0  0  0  0  0  0  0
    6.4004   12.3935   26.2803 C   0  0  0  0  0  0  0  0  0  0  0  0
    7.4823   12.2110   25.3953 C   0  0  0  0  0  0  0  0  0  0  0  0
    8.2226   13.4416   24.9163 C   0  0  0  0  0  0  0  0  0  0  0  0
    7.7207   14.0009   23.5796 C   0  0  0  0  0  0  0  0  0  0  0  0
    6.5485   14.0027   23.3138 O   0  0  0  0  0  0  0  0  0  0  0  0
    8.8369   14.5458   22.8670 N   0  0  0  0  0  0  0  0  0  0  0  0
    9.0983   15.9552   23.3178 C   0  0  0  0  0  0  0  0  0  0  0  0
   10.6134   16.2233   23.3530 C   0  0  0  0  0  0  0  0  0  0  0  0
   11.2405   15.9294   21.9962 C   0  0  0  0  0  0  0  0  0  0  0  0
   10.1216   16.0555   20.9823 C   0  0  1  0  0  0  0  0  0  0  0  0
    9.7011   17.4413   21.0480 O   0  0  0  0  0  0  0  0  0  0  0  0
   10.5615   15.8208   19.4890 C   0  0  0  0  0  0  0  0  0  0  0  0
   11.1310   14.5281   19.2257 N   0  0  0  0  0  0  0  0  0  0  0  0
   10.4374   16.7811   18.7768 O   0  0  0  0  0  0  0  0  0  0  0  0
    8.9152   15.2079   21.4787 C   0  0  0  0  0  0  0  0  0  0  0  0
  1  2  1  0
  2  3  1  0
  3  4  2  0
  4  5  1  0
  5  6  2  0
  6  7  1  0
  7  8  2  0
  8  9  1  0
  9 10  1  0
 10 11  2  0
 10 12  1  0
 12 13  1  0
 13 14  1  0
 14 15  1  0
 15 16  1  0
 16 17  1  6
 16 18  1  0
 18 19  1  0
 18 20  2  0
 16 21  1  0
  8  3  1  0
 21 12  1  0
M  END
>  <alias>  (75) 
None

>  <Experiment code>  (75) 
nan

>  <CrystalformSites upload name>  (75) 
nan

>  <inchikey>  (75) 
MATXBLKTWRNYBE-HNNXBMFYSA-N

>  <Crystalforms upload name>  (75) 
nan

>  <Quatassemblies upload name>  (75) 
nan

>  <ConformerSites alias>  (75) 
nan

>  <ConformerSites short tag>  (75) 
nan

>  <Crystalforms short tag>  (75) 
nan

>  <Centroid res>  (75) 
nan

>  <Quatassemblies short tag>  (75) 
nan

>  <observation_longname>  (75) 
nan

>  <name>  (75) 
MATXBLKTWRNYBE-HNNXBMFYSA-N

>  <CanonSites upload name>  (75) 
nan

>  <tags>  (75) 
[]

>  <energy_score>  (75) 
168.497005

>  <original SMILES>  (75) 
CSc1ccccc1CC(=O)N1CCC[C@@](O)(C(N)=O)C1

>  <ref_mols>  (75) 
A4386a

>  <Pose>  (75) 
nan

>  <distance_score>  (75) 
0.623303

>  <ConformerSites upload name>  (75) 
nan

>  <HIPPO Pose ID>  (75) 
208440

>  <Crystalforms alias>  (75) 
nan

>  <original ID>  (75) 
MATXBLKTWRNYBE-HNNXBMFYSA-N

>  <CanonSites alias>  (75) 
nan

>  <CrystalformSites alias>  (75) 
nan

>  <ref_pdb>  (75) 
A4386a

>  <CanonSites short tag>  (75) 
nan

>  <Quatassemblies alias>  (75) 
nan

>  <HIPPO Compound ID>  (75) 
122922

>  <CrystalformSites short tag>  (75) 
nan

$$$$
KCUWPJSIVYQWJM-YPMHNXCESA-N
     RDKit          3D

 21 22  0  0  0  0  0  0  0  0999 V2000
    8.9395    9.4860   23.8579 C   0  0  0  0  0  0  0  0  0  0  0  0
    8.5608   11.1946   24.3461 S   0  0  0  0  0  0  0  0  0  0  0  0
    7.1319   11.0756   25.4345 C   0  0  0  0  0  0  0  0  0  0  0  0
    6.5718    9.8403   25.7779 C   0  0  0  0  0  0  0  0  0  0  0  0
    5.4632    9.7479   26.6265 C   0  0  0  0  0  0  0  0  0  0  0  0
    4.8797   10.8921   27.1447 C   0  0  0  0  0  0  0  0  0  0  0  0
    5.4135   12.1298   26.8220 C   0  0  0  0  0  0  0  0  0  0  0  0
    6.5521   12.2372   25.9977 C   0  0  0  0  0  0  0  0  0  0  0  0
    7.1620   13.6069   25.8891 C   0  0  0  0  0  0  0  0  0  0  0  0
    6.8252   14.4853   24.6851 C   0  0  0  0  0  0  0  0  0  0  0  0
    5.7874   15.0853   24.6039 O   0  0  0  0  0  0  0  0  0  0  0  0
    7.9719   14.4926   23.8333 N   0  0  0  0  0  0  0  0  0  0  0  0
    8.9459   15.5340   24.2909 C   0  0  0  0  0  0  0  0  0  0  0  0
   10.3337   14.9070   24.1568 C   0  0  2  0  0  0  0  0  0  0  0  0
   11.2903   15.4365   25.1887 C   0  0  0  0  0  0  0  0  0  0  0  0
   10.7710   15.1455   22.7321 C   0  0  0  0  0  0  0  0  0  0  0  0
    9.5777   14.8366   21.8177 C   0  0  2  0  0  0  0  0  0  0  0  0
    9.8259   15.6327   20.5304 C   0  0  0  0  0  0  0  0  0  0  0  0
   10.6147   14.8619   19.5963 N   0  0  0  0  0  0  0  0  0  0  0  0
    9.4331   16.7618   20.4728 O   0  0  0  0  0  0  0  0  0  0  0  0
    8.2116   15.1757   22.4835 C   0  0  0  0  0  0  0  0  0  0  0  0
  1  2  1  0
  2  3  1  0
  3  4  2  0
  4  5  1  0
  5  6  2  0
  6  7  1  0
  7  8  2  0
  8  9  1  0
  9 10  1  0
 10 11  2  0
 10 12  1  0
 12 13  1  0
 13 14  1  0
 14 15  1  1
 14 16  1  0
 16 17  1  0
 17 18  1  6
 18 19  1  0
 18 20  2  0
 17 21  1  0
  8  3  1  0
 21 12  1  0
M  END
>  <alias>  (76) 
None

>  <Experiment code>  (76) 
nan

>  <CrystalformSites upload name>  (76) 
nan

>  <inchikey>  (76) 
KCUWPJSIVYQWJM-YPMHNXCESA-N

>  <Crystalforms upload name>  (76) 
nan

>  <Quatassemblies upload name>  (76) 
nan

>  <ConformerSites alias>  (76) 
nan

>  <ConformerSites short tag>  (76) 
nan

>  <Crystalforms short tag>  (76) 
nan

>  <Centroid res>  (76) 
nan

>  <Quatassemblies short tag>  (76) 
nan

>  <observation_longname>  (76) 
nan

>  <name>  (76) 
KCUWPJSIVYQWJM-YPMHNXCESA-N

>  <CanonSites upload name>  (76) 
nan

>  <tags>  (76) 
[]

>  <energy_score>  (76) 
200.189953

>  <original SMILES>  (76) 
CSc1ccccc1CC(=O)N1C[C@H](C)C[C@H](C(N)=O)C1

>  <ref_mols>  (76) 
A4386a

>  <Pose>  (76) 
nan

>  <distance_score>  (76) 
1.260255

>  <ConformerSites upload name>  (76) 
nan

>  <HIPPO Pose ID>  (76) 
208446

>  <Crystalforms alias>  (76) 
nan

>  <original ID>  (76) 
KCUWPJSIVYQWJM-YPMHNXCESA-N

>  <CanonSites alias>  (76) 
nan

>  <CrystalformSites alias>  (76) 
nan

>  <ref_pdb>  (76) 
A4386a

>  <CanonSites short tag>  (76) 
nan

>  <Quatassemblies alias>  (76) 
nan

>  <HIPPO Compound ID>  (76) 
122925

>  <CrystalformSites short tag>  (76) 
nan

$$$$
KCUWPJSIVYQWJM-WCQYABFASA-N
     RDKit          3D

 21 22  0  0  0  0  0  0  0  0999 V2000
    8.9225    9.6383   23.9281 C   0  0  0  0  0  0  0  0  0  0  0  0
    8.4957   11.3316   24.4319 S   0  0  0  0  0  0  0  0  0  0  0  0
    7.1432   11.1504   25.6010 C   0  0  0  0  0  0  0  0  0  0  0  0
    6.5043    9.9221   25.8020 C   0  0  0  0  0  0  0  0  0  0  0  0
    5.4244    9.7948   26.6806 C   0  0  0  0  0  0  0  0  0  0  0  0
    4.9513   10.8995   27.3710 C   0  0  0  0  0  0  0  0  0  0  0  0
    5.5783   12.1263   27.2039 C   0  0  0  0  0  0  0  0  0  0  0  0
    6.6905   12.2624   26.3496 C   0  0  0  0  0  0  0  0  0  0  0  0
    7.4122   13.5848   26.3873 C   0  0  0  0  0  0  0  0  0  0  0  0
    6.7933   14.7467   25.6303 C   0  0  0  0  0  0  0  0  0  0  0  0
    5.7274   15.1993   25.9499 O   0  0  0  0  0  0  0  0  0  0  0  0
    7.7324   15.1819   24.6316 N   0  0  0  0  0  0  0  0  0  0  0  0
    8.7309   16.1550   25.2421 C   0  0  0  0  0  0  0  0  0  0  0  0
   10.1525   16.0441   24.6551 C   0  0  1  0  0  0  0  0  0  0  0  0
   10.7933   14.6781   24.9167 C   0  0  0  0  0  0  0  0  0  0  0  0
   10.1628   16.3672   23.1703 C   0  0  0  0  0  0  0  0  0  0  0  0
    8.7686   16.3073   22.5613 C   0  0  1  0  0  0  0  0  0  0  0  0
    8.7161   15.1493   21.5616 C   0  0  0  0  0  0  0  0  0  0  0  0
    8.3238   13.8942   22.1656 N   0  0  0  0  0  0  0  0  0  0  0  0
    9.0364   15.4073   20.4355 O   0  0  0  0  0  0  0  0  0  0  0  0
    7.6288   16.2849   23.5832 C   0  0  0  0  0  0  0  0  0  0  0  0
  1  2  1  0
  2  3  1  0
  3  4  2  0
  4  5  1  0
  5  6  2  0
  6  7  1  0
  7  8  2  0
  8  9  1  0
  9 10  1  0
 10 11  2  0
 10 12  1  0
 12 13  1  0
 13 14  1  0
 14 15  1  6
 14 16  1  0
 16 17  1  0
 17 18  1  1
 18 19  1  0
 18 20  2  0
 17 21  1  0
  8  3  1  0
 21 12  1  0
M  END
>  <alias>  (77) 
None

>  <Experiment code>  (77) 
nan

>  <CrystalformSites upload name>  (77) 
nan

>  <inchikey>  (77) 
KCUWPJSIVYQWJM-WCQYABFASA-N

>  <Crystalforms upload name>  (77) 
nan

>  <Quatassemblies upload name>  (77) 
nan

>  <ConformerSites alias>  (77) 
nan

>  <ConformerSites short tag>  (77) 
nan

>  <Crystalforms short tag>  (77) 
nan

>  <Centroid res>  (77) 
nan

>  <Quatassemblies short tag>  (77) 
nan

>  <observation_longname>  (77) 
nan

>  <name>  (77) 
KCUWPJSIVYQWJM-WCQYABFASA-N

>  <CanonSites upload name>  (77) 
nan

>  <tags>  (77) 
[]

>  <energy_score>  (77) 
86.076269

>  <original SMILES>  (77) 
CSc1ccccc1CC(=O)N1C[C@@H](C)C[C@@H](C(N)=O)C1

>  <ref_mols>  (77) 
A4386a

>  <Pose>  (77) 
nan

>  <distance_score>  (77) 
2.097943

>  <ConformerSites upload name>  (77) 
nan

>  <HIPPO Pose ID>  (77) 
208447

>  <Crystalforms alias>  (77) 
nan

>  <original ID>  (77) 
KCUWPJSIVYQWJM-WCQYABFASA-N

>  <CanonSites alias>  (77) 
nan

>  <CrystalformSites alias>  (77) 
nan

>  <ref_pdb>  (77) 
A4386a

>  <CanonSites short tag>  (77) 
nan

>  <Quatassemblies alias>  (77) 
nan

>  <HIPPO Compound ID>  (77) 
122925

>  <CrystalformSites short tag>  (77) 
nan

$$$$
KCUWPJSIVYQWJM-WCQYABFASA-N
     RDKit          3D

 21 22  0  0  0  0  0  0  0  0999 V2000
    9.2085    8.9522   23.5249 C   0  0  0  0  0  0  0  0  0  0  0  0
    9.1195   10.7278   23.8542 S   0  0  0  0  0  0  0  0  0  0  0  0
    7.7548   10.9153   25.0028 C   0  0  0  0  0  0  0  0  0  0  0  0
    7.0443    9.8224   25.5114 C   0  0  0  0  0  0  0  0  0  0  0  0
    5.9688    9.9900   26.3892 C   0  0  0  0  0  0  0  0  0  0  0  0
    5.5846   11.2638   26.7790 C   0  0  0  0  0  0  0  0  0  0  0  0
    6.2840   12.3651   26.2979 C   0  0  0  0  0  0  0  0  0  0  0  0
    7.3784   12.2064   25.4241 C   0  0  0  0  0  0  0  0  0  0  0  0
    8.1090   13.4529   24.9790 C   0  0  0  0  0  0  0  0  0  0  0  0
    7.6037   14.0748   23.6734 C   0  0  0  0  0  0  0  0  0  0  0  0
    6.4262   14.1652   23.4529 O   0  0  0  0  0  0  0  0  0  0  0  0
    8.7310   14.5555   22.9279 N   0  0  0  0  0  0  0  0  0  0  0  0
    9.1092   15.9340   23.3956 C   0  0  0  0  0  0  0  0  0  0  0  0
   10.6509   16.0811   23.4012 C   0  0  1  0  0  0  0  0  0  0  0  0
   11.3266   15.1610   24.4177 C   0  0  0  0  0  0  0  0  0  0  0  0
   11.2015   15.8041   22.0048 C   0  0  0  0  0  0  0  0  0  0  0  0
   10.0444   16.0185   21.0552 C   0  0  1  0  0  0  0  0  0  0  0  0
   10.3985   15.8713   19.5610 C   0  0  0  0  0  0  0  0  0  0  0  0
   10.9157   14.5778   19.2126 N   0  0  0  0  0  0  0  0  0  0  0  0
   10.2737   16.8643   18.9030 O   0  0  0  0  0  0  0  0  0  0  0  0
    8.8050   15.2374   21.5562 C   0  0  0  0  0  0  0  0  0  0  0  0
  1  2  1  0
  2  3  1  0
  3  4  2  0
  4  5  1  0
  5  6  2  0
  6  7  1  0
  7  8  2  0
  8  9  1  0
  9 10  1  0
 10 11  2  0
 10 12  1  0
 12 13  1  0
 13 14  1  0
 14 15  1  1
 14 16  1  0
 16 17  1  0
 17 18  1  6
 18 19  1  0
 18 20  2  0
 17 21  1  0
  8  3  1  0
 21 12  1  0
M  END
>  <alias>  (78) 
None

>  <Experiment code>  (78) 
nan

>  <CrystalformSites upload name>  (78) 
nan

>  <inchikey>  (78) 
KCUWPJSIVYQWJM-WCQYABFASA-N

>  <Crystalforms upload name>  (78) 
nan

>  <Quatassemblies upload name>  (78) 
nan

>  <ConformerSites alias>  (78) 
nan

>  <ConformerSites short tag>  (78) 
nan

>  <Crystalforms short tag>  (78) 
nan

>  <Centroid res>  (78) 
nan

>  <Quatassemblies short tag>  (78) 
nan

>  <observation_longname>  (78) 
nan

>  <name>  (78) 
KCUWPJSIVYQWJM-WCQYABFASA-N

>  <CanonSites upload name>  (78) 
nan

>  <tags>  (78) 
[]

>  <energy_score>  (78) 
137.101618

>  <original SMILES>  (78) 
CSc1ccccc1CC(=O)N1C[C@@H](C)C[C@@H](C(N)=O)C1

>  <ref_mols>  (78) 
A4386a

>  <Pose>  (78) 
nan

>  <distance_score>  (78) 
0.610997

>  <ConformerSites upload name>  (78) 
nan

>  <HIPPO Pose ID>  (78) 
208448

>  <Crystalforms alias>  (78) 
nan

>  <original ID>  (78) 
KCUWPJSIVYQWJM-WCQYABFASA-N

>  <CanonSites alias>  (78) 
nan

>  <CrystalformSites alias>  (78) 
nan

>  <ref_pdb>  (78) 
A4386a

>  <CanonSites short tag>  (78) 
nan

>  <Quatassemblies alias>  (78) 
nan

>  <HIPPO Compound ID>  (78) 
122925

>  <CrystalformSites short tag>  (78) 
nan

$$$$
HOIGWFJTYNXUKQ-OAHLLOKOSA-N
     RDKit          3D

 21 22  0  0  0  0  0  0  0  0999 V2000
    8.7834    9.9697   24.1258 C   0  0  0  0  0  0  0  0  0  0  0  0
    8.3285   11.5380   24.9239 S   0  0  0  0  0  0  0  0  0  0  0  0
    6.8307   11.2057   25.8477 C   0  0  0  0  0  0  0  0  0  0  0  0
    6.3263    9.8998   25.9370 C   0  0  0  0  0  0  0  0  0  0  0  0
    5.2016    9.5968   26.7076 C   0  0  0  0  0  0  0  0  0  0  0  0
    4.5441   10.5912   27.4042 C   0  0  0  0  0  0  0  0  0  0  0  0
    5.0075   11.8925   27.3163 C   0  0  0  0  0  0  0  0  0  0  0  0
    6.1592   12.2260   26.5629 C   0  0  0  0  0  0  0  0  0  0  0  0
    6.6615   13.6257   26.8086 C   0  0  0  0  0  0  0  0  0  0  0  0
    6.9303   14.6359   25.7094 C   0  0  0  0  0  0  0  0  0  0  0  0
    6.0565   15.3816   25.3747 O   0  0  0  0  0  0  0  0  0  0  0  0
    8.2983   14.5674   25.3108 N   0  0  0  0  0  0  0  0  0  0  0  0
    9.0953   15.4435   24.4436 C   0  0  2  0  0  0  0  0  0  0  0  0
    9.4963   16.5411   25.5190 C   0  0  0  0  0  0  0  0  0  0  0  0
    8.3229   17.2551   26.0313 N   0  0  0  0  0  0  0  0  0  0  0  0
   10.6558   16.6168   25.8329 O   0  0  0  0  0  0  0  0  0  0  0  0
    8.3114   15.9906   23.2240 C   0  0  0  0  0  0  0  0  0  0  0  0
    9.2350   16.1923   22.0234 C   0  0  0  0  0  0  0  0  0  0  0  0
    9.8794   14.8693   21.6077 C   0  0  0  0  0  0  0  0  0  0  0  0
   10.1583   13.9656   22.7333 N   0  0  0  0  0  0  0  0  0  0  0  0
   10.4001   14.7219   23.9619 C   0  0  0  0  0  0  0  0  0  0  0  0
  1  2  1  0
  2  3  1  0
  3  4  2  0
  4  5  1  0
  5  6  2  0
  6  7  1  0
  7  8  2  0
  8  9  1  0
  9 10  1  0
 10 11  2  0
 10 12  1  0
 13 12  1  1
 13 14  1  0
 14 15  1  0
 14 16  2  0
 13 17  1  0
 17 18  1  0
 18 19  1  0
 19 20  1  0
 20 21  1  0
  8  3  1  0
 21 13  1  0
M  END
>  <alias>  (79) 
None

>  <Experiment code>  (79) 
nan

>  <CrystalformSites upload name>  (79) 
nan

>  <inchikey>  (79) 
HOIGWFJTYNXUKQ-OAHLLOKOSA-N

>  <Crystalforms upload name>  (79) 
nan

>  <Quatassemblies upload name>  (79) 
nan

>  <ConformerSites alias>  (79) 
nan

>  <ConformerSites short tag>  (79) 
nan

>  <Crystalforms short tag>  (79) 
nan

>  <Centroid res>  (79) 
nan

>  <Quatassemblies short tag>  (79) 
nan

>  <observation_longname>  (79) 
nan

>  <name>  (79) 
HOIGWFJTYNXUKQ-OAHLLOKOSA-N

>  <CanonSites upload name>  (79) 
nan

>  <tags>  (79) 
[]

>  <energy_score>  (79) 
89.802894

>  <original SMILES>  (79) 
CSc1ccccc1CC(=O)N[C@]1(C(N)=O)CCCNC1

>  <ref_mols>  (79) 
A4386a

>  <Pose>  (79) 
nan

>  <distance_score>  (79) 
2.377667

>  <ConformerSites upload name>  (79) 
nan

>  <HIPPO Pose ID>  (79) 
208502

>  <Crystalforms alias>  (79) 
nan

>  <original ID>  (79) 
HOIGWFJTYNXUKQ-OAHLLOKOSA-N

>  <CanonSites alias>  (79) 
nan

>  <CrystalformSites alias>  (79) 
nan

>  <ref_pdb>  (79) 
A4386a

>  <CanonSites short tag>  (79) 
nan

>  <Quatassemblies alias>  (79) 
nan

>  <HIPPO Compound ID>  (79) 
122945

>  <CrystalformSites short tag>  (79) 
nan

$$$$
HOIGWFJTYNXUKQ-HNNXBMFYSA-N
     RDKit          3D

 21 22  0  0  0  0  0  0  0  0999 V2000
    8.6130   10.1472   24.2770 C   0  0  0  0  0  0  0  0  0  0  0  0
    8.4448   11.7267   25.1564 S   0  0  0  0  0  0  0  0  0  0  0  0
    6.8886   11.6524   26.0309 C   0  0  0  0  0  0  0  0  0  0  0  0
    6.3434   10.3805   26.3087 C   0  0  0  0  0  0  0  0  0  0  0  0
    5.2026   10.2174   27.0918 C   0  0  0  0  0  0  0  0  0  0  0  0
    4.5636   11.3320   27.6032 C   0  0  0  0  0  0  0  0  0  0  0  0
    5.0673   12.6013   27.3246 C   0  0  0  0  0  0  0  0  0  0  0  0
    6.2376   12.8030   26.5486 C   0  0  0  0  0  0  0  0  0  0  0  0
    6.5788   14.2894   26.3639 C   0  0  0  0  0  0  0  0  0  0  0  0
    7.9248   14.7037   25.7731 C   0  0  0  0  0  0  0  0  0  0  0  0
    8.8967   14.7116   26.4761 O   0  0  0  0  0  0  0  0  0  0  0  0
    7.7851   14.9400   24.3611 N   0  0  0  0  0  0  0  0  0  0  0  0
    8.7904   15.1654   23.3192 C   0  0  1  0  0  0  0  0  0  0  0  0
    8.6164   13.7466   22.6139 C   0  0  0  0  0  0  0  0  0  0  0  0
    9.8634   13.0445   22.4200 N   0  0  0  0  0  0  0  0  0  0  0  0
    7.4764   13.4004   22.4021 O   0  0  0  0  0  0  0  0  0  0  0  0
    8.3773   16.2240   22.2824 C   0  0  0  0  0  0  0  0  0  0  0  0
    9.5842   16.8452   21.5632 C   0  0  0  0  0  0  0  0  0  0  0  0
   10.8268   15.9594   21.5201 C   0  0  0  0  0  0  0  0  0  0  0  0
   11.2246   15.3643   22.8198 N   0  0  0  0  0  0  0  0  0  0  0  0
   10.1879   15.5183   23.8658 C   0  0  0  0  0  0  0  0  0  0  0  0
  1  2  1  0
  2  3  1  0
  3  4  2  0
  4  5  1  0
  5  6  2  0
  6  7  1  0
  7  8  2  0
  8  9  1  0
  9 10  1  0
 10 11  2  0
 10 12  1  0
 13 12  1  1
 13 14  1  0
 14 15  1  0
 14 16  2  0
 13 17  1  0
 17 18  1  0
 18 19  1  0
 19 20  1  0
 20 21  1  0
  8  3  1  0
 21 13  1  0
M  END
>  <alias>  (80) 
None

>  <Experiment code>  (80) 
nan

>  <CrystalformSites upload name>  (80) 
nan

>  <inchikey>  (80) 
HOIGWFJTYNXUKQ-HNNXBMFYSA-N

>  <Crystalforms upload name>  (80) 
nan

>  <Quatassemblies upload name>  (80) 
nan

>  <ConformerSites alias>  (80) 
nan

>  <ConformerSites short tag>  (80) 
nan

>  <Crystalforms short tag>  (80) 
nan

>  <Centroid res>  (80) 
nan

>  <Quatassemblies short tag>  (80) 
nan

>  <observation_longname>  (80) 
nan

>  <name>  (80) 
HOIGWFJTYNXUKQ-HNNXBMFYSA-N

>  <CanonSites upload name>  (80) 
nan

>  <tags>  (80) 
[]

>  <energy_score>  (80) 
49.311842

>  <original SMILES>  (80) 
CSc1ccccc1CC(=O)N[C@@]1(C(N)=O)CCCNC1

>  <ref_mols>  (80) 
A4386a

>  <Pose>  (80) 
nan

>  <distance_score>  (80) 
2.214089

>  <ConformerSites upload name>  (80) 
nan

>  <HIPPO Pose ID>  (80) 
208503

>  <Crystalforms alias>  (80) 
nan

>  <original ID>  (80) 
HOIGWFJTYNXUKQ-HNNXBMFYSA-N

>  <CanonSites alias>  (80) 
nan

>  <CrystalformSites alias>  (80) 
nan

>  <ref_pdb>  (80) 
A4386a

>  <CanonSites short tag>  (80) 
nan

>  <Quatassemblies alias>  (80) 
nan

>  <HIPPO Compound ID>  (80) 
122945

>  <CrystalformSites short tag>  (80) 
nan

$$$$
ZXKMFCGACBAZDX-HNNXBMFYSA-N
     RDKit          3D

 21 22  0  0  0  0  0  0  0  0999 V2000
    8.6496   10.2790   24.3279 C   0  0  0  0  0  0  0  0  0  0  0  0
    8.0761   11.7590   25.2132 S   0  0  0  0  0  0  0  0  0  0  0  0
    6.7112   11.1876   26.2421 C   0  0  0  0  0  0  0  0  0  0  0  0
    6.1746    9.9048   26.0936 C   0  0  0  0  0  0  0  0  0  0  0  0
    5.1222    9.4574   26.8995 C   0  0  0  0  0  0  0  0  0  0  0  0
    4.6013   10.2608   27.8986 C   0  0  0  0  0  0  0  0  0  0  0  0
    5.1076   11.5373   28.0652 C   0  0  0  0  0  0  0  0  0  0  0  0
    6.1496   12.0191   27.2445 C   0  0  0  0  0  0  0  0  0  0  0  0
    6.5152   13.4727   27.4527 C   0  0  0  0  0  0  0  0  0  0  0  0
    5.5060   14.3686   26.7470 C   0  0  0  0  0  0  0  0  0  0  0  0
    4.5842   14.8709   27.3325 O   0  0  0  0  0  0  0  0  0  0  0  0
    5.8371   14.3719   25.3625 N   0  0  0  0  0  0  0  0  0  0  0  0
    6.7440   15.5476   25.0511 C   0  0  0  0  0  0  0  0  0  0  0  0
    6.3379   16.9492   24.6085 C   0  0  0  0  0  0  0  0  0  0  0  0
    5.9916   16.8706   23.1304 C   0  0  0  0  0  0  0  0  0  0  0  0
    5.6422   15.4156   22.7949 C   0  0  1  0  0  0  0  0  0  0  0  0
    4.5445   15.4390   21.7725 N   0  0  0  0  0  0  0  0  0  0  0  0
    6.7194   14.3665   22.2179 C   0  0  0  0  0  0  0  0  0  0  0  0
    7.8380   14.9864   21.5437 N   0  0  0  0  0  0  0  0  0  0  0  0
    6.4294   13.2076   22.3452 O   0  0  0  0  0  0  0  0  0  0  0  0
    5.0814   14.9054   24.1725 C   0  0  0  0  0  0  0  0  0  0  0  0
  1  2  1  0
  2  3  1  0
  3  4  2  0
  4  5  1  0
  5  6  2  0
  6  7  1  0
  7  8  2  0
  8  9  1  0
  9 10  1  0
 10 11  2  0
 10 12  1  0
 12 13  1  0
 13 14  1  0
 14 15  1  0
 15 16  1  0
 16 17  1  6
 16 18  1  0
 18 19  1  0
 18 20  2  0
 16 21  1  0
  8  3  1  0
 21 12  1  0
M  END
>  <alias>  (81) 
None

>  <Experiment code>  (81) 
nan

>  <CrystalformSites upload name>  (81) 
nan

>  <inchikey>  (81) 
ZXKMFCGACBAZDX-HNNXBMFYSA-N

>  <Crystalforms upload name>  (81) 
nan

>  <Quatassemblies upload name>  (81) 
nan

>  <ConformerSites alias>  (81) 
nan

>  <ConformerSites short tag>  (81) 
nan

>  <Crystalforms short tag>  (81) 
nan

>  <Centroid res>  (81) 
nan

>  <Quatassemblies short tag>  (81) 
nan

>  <observation_longname>  (81) 
nan

>  <name>  (81) 
ZXKMFCGACBAZDX-HNNXBMFYSA-N

>  <CanonSites upload name>  (81) 
nan

>  <tags>  (81) 
[]

>  <energy_score>  (81) 
179.039696

>  <original SMILES>  (81) 
CSc1ccccc1CC(=O)N1CCC[C@@](N)(C(N)=O)C1

>  <ref_mols>  (81) 
A4386a

>  <Pose>  (81) 
nan

>  <distance_score>  (81) 
3.751369

>  <ConformerSites upload name>  (81) 
nan

>  <HIPPO Pose ID>  (81) 
208504

>  <Crystalforms alias>  (81) 
nan

>  <original ID>  (81) 
ZXKMFCGACBAZDX-HNNXBMFYSA-N

>  <CanonSites alias>  (81) 
nan

>  <CrystalformSites alias>  (81) 
nan

>  <ref_pdb>  (81) 
A4386a

>  <CanonSites short tag>  (81) 
nan

>  <Quatassemblies alias>  (81) 
nan

>  <HIPPO Compound ID>  (81) 
122946

>  <CrystalformSites short tag>  (81) 
nan

$$$$
BHXXNDRDFMGLNO-TZMCWYRMSA-N
     RDKit          3D

 22 24  0  0  0  0  0  0  0  0999 V2000
   10.9784   15.1570   18.8503 C   0  0  0  0  0  0  0  0  0  0  0  0
   10.3774   15.4309   20.1094 N   0  0  0  0  0  0  0  0  0  0  0  0
    9.8023   16.6175   20.6263 C   0  0  0  0  0  0  0  0  0  0  0  0
    9.6014   17.6748   20.1115 O   0  0  0  0  0  0  0  0  0  0  0  0
    9.4829   16.4996   22.1070 C   0  0  2  0  0  0  0  0  0  0  0  0
   10.6381   16.0057   22.9608 C   0  0  0  0  0  0  0  0  0  0  0  0
   10.1439   16.0408   24.3927 C   0  0  0  0  0  0  0  0  0  0  0  0
    8.6060   15.9494   24.3893 C   0  0  0  0  0  0  0  0  0  0  0  0
    8.1785   14.7267   23.6054 N   0  0  0  0  0  0  0  0  0  0  0  0
    7.0893   14.0758   24.2676 C   0  0  0  0  0  0  0  0  0  0  0  0
    5.9045   14.2206   24.1453 O   0  0  0  0  0  0  0  0  0  0  0  0
    7.6948   13.1339   25.3508 C   0  0  2  0  0  0  0  0  0  0  0  0
    8.9642   12.4083   24.8893 C   0  0  0  0  0  0  0  0  0  0  0  0
    8.6607   11.2471   23.9760 C   0  0  0  0  0  0  0  0  0  0  0  0
    7.8721    9.9125   24.8935 S   0  0  0  0  0  0  0  0  0  0  0  0
    6.6965   10.8201   25.8751 C   0  0  0  0  0  0  0  0  0  0  0  0
    5.7644   10.0484   26.5842 C   0  0  0  0  0  0  0  0  0  0  0  0
    4.8369   10.6369   27.4404 C   0  0  0  0  0  0  0  0  0  0  0  0
    4.8125   12.0161   27.5793 C   0  0  0  0  0  0  0  0  0  0  0  0
    5.7278   12.7965   26.8756 C   0  0  0  0  0  0  0  0  0  0  0  0
    6.6890   12.2138   26.0237 C   0  0  0  0  0  0  0  0  0  0  0  0
    8.1884   15.7333   22.4480 C   0  0  0  0  0  0  0  0  0  0  0  0
  1  2  1  0
  2  3  1  0
  3  4  2  0
  5  3  1  6
  5  6  1  0
  6  7  1  0
  7  8  1  0
  8  9  1  0
  9 10  1  0
 10 11  2  0
 12 10  1  6
 12 13  1  0
 13 14  1  0
 14 15  1  0
 15 16  1  0
 16 17  2  0
 17 18  1  0
 18 19  2  0
 19 20  1  0
 20 21  2  0
  9 22  1  0
 22  5  1  0
 21 12  1  0
 21 16  1  0
M  END
>  <alias>  (82) 
None

>  <Experiment code>  (82) 
nan

>  <CrystalformSites upload name>  (82) 
nan

>  <inchikey>  (82) 
BHXXNDRDFMGLNO-TZMCWYRMSA-N

>  <Crystalforms upload name>  (82) 
nan

>  <Quatassemblies upload name>  (82) 
nan

>  <ConformerSites alias>  (82) 
nan

>  <ConformerSites short tag>  (82) 
nan

>  <Crystalforms short tag>  (82) 
nan

>  <Centroid res>  (82) 
nan

>  <Quatassemblies short tag>  (82) 
nan

>  <observation_longname>  (82) 
nan

>  <name>  (82) 
BHXXNDRDFMGLNO-TZMCWYRMSA-N

>  <CanonSites upload name>  (82) 
nan

>  <tags>  (82) 
[]

>  <energy_score>  (82) 
-3.539904

>  <original SMILES>  (82) 
CNC(=O)[C@@H]1CCCN(C(=O)[C@@H]2CCSc3ccccc32)C1

>  <ref_mols>  (82) 
A4386a

>  <Pose>  (82) 
nan

>  <distance_score>  (82) 
1.539449

>  <ConformerSites upload name>  (82) 
nan

>  <HIPPO Pose ID>  (82) 
208664

>  <Crystalforms alias>  (82) 
nan

>  <original ID>  (82) 
BHXXNDRDFMGLNO-TZMCWYRMSA-N

>  <CanonSites alias>  (82) 
nan

>  <CrystalformSites alias>  (82) 
nan

>  <ref_pdb>  (82) 
A4386a

>  <CanonSites short tag>  (82) 
nan

>  <Quatassemblies alias>  (82) 
nan

>  <HIPPO Compound ID>  (82) 
122996

>  <CrystalformSites short tag>  (82) 
nan

$$$$
BHXXNDRDFMGLNO-GXTWGEPZSA-N
     RDKit          3D

 22 24  0  0  0  0  0  0  0  0999 V2000
   11.1015   15.5561   18.7426 C   0  0  0  0  0  0  0  0  0  0  0  0
   10.6910   15.3510   20.0839 N   0  0  0  0  0  0  0  0  0  0  0  0
    9.8407   16.1195   20.9281 C   0  0  0  0  0  0  0  0  0  0  0  0
    9.3156   17.1762   20.7522 O   0  0  0  0  0  0  0  0  0  0  0  0
    9.7257   15.4425   22.2771 C   0  0  1  0  0  0  0  0  0  0  0  0
   10.6979   16.1228   23.2273 C   0  0  0  0  0  0  0  0  0  0  0  0
   10.2644   15.8640   24.6510 C   0  0  0  0  0  0  0  0  0  0  0  0
    8.7333   15.8089   24.7427 C   0  0  0  0  0  0  0  0  0  0  0  0
    8.1451   14.6087   24.0056 N   0  0  0  0  0  0  0  0  0  0  0  0
    6.9746   14.1410   24.6815 C   0  0  0  0  0  0  0  0  0  0  0  0
    5.8211   14.4365   24.5376 O   0  0  0  0  0  0  0  0  0  0  0  0
    7.4651   13.1027   25.7299 C   0  0  2  0  0  0  0  0  0  0  0  0
    8.6775   12.2852   25.2441 C   0  0  0  0  0  0  0  0  0  0  0  0
    8.2971   11.2204   24.2471 C   0  0  0  0  0  0  0  0  0  0  0  0
    7.4643    9.8886   25.1332 S   0  0  0  0  0  0  0  0  0  0  0  0
    6.3377   10.8235   26.1540 C   0  0  0  0  0  0  0  0  0  0  0  0
    5.3885   10.0693   26.8591 C   0  0  0  0  0  0  0  0  0  0  0  0
    4.4811   10.6797   27.7217 C   0  0  0  0  0  0  0  0  0  0  0  0
    4.4967   12.0589   27.8718 C   0  0  0  0  0  0  0  0  0  0  0  0
    5.4402   12.8201   27.1846 C   0  0  0  0  0  0  0  0  0  0  0  0
    6.3864   12.2171   26.3333 C   0  0  0  0  0  0  0  0  0  0  0  0
    8.2971   15.5340   22.8249 C   0  0  0  0  0  0  0  0  0  0  0  0
  1  2  1  0
  2  3  1  0
  3  4  2  0
  5  3  1  6
  5  6  1  0
  6  7  1  0
  7  8  1  0
  8  9  1  0
  9 10  1  0
 10 11  2  0
 12 10  1  6
 12 13  1  0
 13 14  1  0
 14 15  1  0
 15 16  1  0
 16 17  2  0
 17 18  1  0
 18 19  2  0
 19 20  1  0
 20 21  2  0
  9 22  1  0
 22  5  1  0
 21 12  1  0
 21 16  1  0
M  END
>  <alias>  (83) 
None

>  <Experiment code>  (83) 
nan

>  <CrystalformSites upload name>  (83) 
nan

>  <inchikey>  (83) 
BHXXNDRDFMGLNO-GXTWGEPZSA-N

>  <Crystalforms upload name>  (83) 
nan

>  <Quatassemblies upload name>  (83) 
nan

>  <ConformerSites alias>  (83) 
nan

>  <ConformerSites short tag>  (83) 
nan

>  <Crystalforms short tag>  (83) 
nan

>  <Centroid res>  (83) 
nan

>  <Quatassemblies short tag>  (83) 
nan

>  <observation_longname>  (83) 
nan

>  <name>  (83) 
BHXXNDRDFMGLNO-GXTWGEPZSA-N

>  <CanonSites upload name>  (83) 
nan

>  <tags>  (83) 
[]

>  <energy_score>  (83) 
27.412037

>  <original SMILES>  (83) 
CNC(=O)[C@H]1CCCN(C(=O)[C@@H]2CCSc3ccccc32)C1

>  <ref_mols>  (83) 
A4386a

>  <Pose>  (83) 
nan

>  <distance_score>  (83) 
1.775868

>  <ConformerSites upload name>  (83) 
nan

>  <HIPPO Pose ID>  (83) 
208665

>  <Crystalforms alias>  (83) 
nan

>  <original ID>  (83) 
BHXXNDRDFMGLNO-GXTWGEPZSA-N

>  <CanonSites alias>  (83) 
nan

>  <CrystalformSites alias>  (83) 
nan

>  <ref_pdb>  (83) 
A4386a

>  <CanonSites short tag>  (83) 
nan

>  <Quatassemblies alias>  (83) 
nan

>  <HIPPO Compound ID>  (83) 
122996

>  <CrystalformSites short tag>  (83) 
nan

$$$$
BHXXNDRDFMGLNO-TZMCWYRMSA-N
     RDKit          3D

 22 24  0  0  0  0  0  0  0  0999 V2000
   10.8923   15.2811   18.8591 C   0  0  0  0  0  0  0  0  0  0  0  0
   10.5292   15.4770   20.2216 N   0  0  0  0  0  0  0  0  0  0  0  0
   10.0035   16.6120   20.8912 C   0  0  0  0  0  0  0  0  0  0  0  0
    9.6549   17.6741   20.4706 O   0  0  0  0  0  0  0  0  0  0  0  0
    9.9391   16.4251   22.4033 C   0  0  2  0  0  0  0  0  0  0  0  0
   11.0562   15.6537   23.0855 C   0  0  0  0  0  0  0  0  0  0  0  0
   10.7198   15.6628   24.5665 C   0  0  0  0  0  0  0  0  0  0  0  0
    9.1934   15.6739   24.7419 C   0  0  0  0  0  0  0  0  0  0  0  0
    8.5215   14.7156   23.7828 N   0  0  0  0  0  0  0  0  0  0  0  0
    7.4226   14.0710   24.4250 C   0  0  0  0  0  0  0  0  0  0  0  0
    6.2651   14.3793   24.4849 O   0  0  0  0  0  0  0  0  0  0  0  0
    7.9741   12.7315   25.0041 C   0  0  2  0  0  0  0  0  0  0  0  0
    8.4089   11.9217   23.7756 C   0  0  0  0  0  0  0  0  0  0  0  0
    8.9038   10.5261   24.0372 C   0  0  0  0  0  0  0  0  0  0  0  0
    7.7204    9.4924   24.9011 S   0  0  0  0  0  0  0  0  0  0  0  0
    6.8006   10.6383   25.8941 C   0  0  0  0  0  0  0  0  0  0  0  0
    5.8295   10.0593   26.7300 C   0  0  0  0  0  0  0  0  0  0  0  0
    5.1052   10.8202   27.6426 C   0  0  0  0  0  0  0  0  0  0  0  0
    5.3462   12.1803   27.7320 C   0  0  0  0  0  0  0  0  0  0  0  0
    6.2869   12.7706   26.8888 C   0  0  0  0  0  0  0  0  0  0  0  0
    6.9990   12.0214   25.9259 C   0  0  0  0  0  0  0  0  0  0  0  0
    8.5639   15.9311   22.8772 C   0  0  0  0  0  0  0  0  0  0  0  0
  1  2  1  0
  2  3  1  0
  3  4  2  0
  5  3  1  6
  5  6  1  0
  6  7  1  0
  7  8  1  0
  8  9  1  0
  9 10  1  0
 10 11  2  0
 12 10  1  6
 12 13  1  0
 13 14  1  0
 14 15  1  0
 15 16  1  0
 16 17  2  0
 17 18  1  0
 18 19  2  0
 19 20  1  0
 20 21  2  0
  9 22  1  0
 22  5  1  0
 21 12  1  0
 21 16  1  0
M  END
>  <alias>  (84) 
None

>  <Experiment code>  (84) 
nan

>  <CrystalformSites upload name>  (84) 
nan

>  <inchikey>  (84) 
BHXXNDRDFMGLNO-TZMCWYRMSA-N

>  <Crystalforms upload name>  (84) 
nan

>  <Quatassemblies upload name>  (84) 
nan

>  <ConformerSites alias>  (84) 
nan

>  <ConformerSites short tag>  (84) 
nan

>  <Crystalforms short tag>  (84) 
nan

>  <Centroid res>  (84) 
nan

>  <Quatassemblies short tag>  (84) 
nan

>  <observation_longname>  (84) 
nan

>  <name>  (84) 
BHXXNDRDFMGLNO-TZMCWYRMSA-N

>  <CanonSites upload name>  (84) 
nan

>  <tags>  (84) 
[]

>  <energy_score>  (84) 
-16.567416

>  <original SMILES>  (84) 
CNC(=O)[C@@H]1CCCN(C(=O)[C@@H]2CCSc3ccccc32)C1

>  <ref_mols>  (84) 
A4386a

>  <Pose>  (84) 
nan

>  <distance_score>  (84) 
1.482043

>  <ConformerSites upload name>  (84) 
nan

>  <HIPPO Pose ID>  (84) 
208666

>  <Crystalforms alias>  (84) 
nan

>  <original ID>  (84) 
BHXXNDRDFMGLNO-TZMCWYRMSA-N

>  <CanonSites alias>  (84) 
nan

>  <CrystalformSites alias>  (84) 
nan

>  <ref_pdb>  (84) 
A4386a

>  <CanonSites short tag>  (84) 
nan

>  <Quatassemblies alias>  (84) 
nan

>  <HIPPO Compound ID>  (84) 
122996

>  <CrystalformSites short tag>  (84) 
nan

$$$$
BHXXNDRDFMGLNO-GXTWGEPZSA-N
     RDKit          3D

 22 24  0  0  0  0  0  0  0  0999 V2000
   10.5482   15.6696   18.8974 C   0  0  0  0  0  0  0  0  0  0  0  0
   10.5969   15.2428   20.2589 N   0  0  0  0  0  0  0  0  0  0  0  0
   10.9538   15.9471   21.4497 C   0  0  0  0  0  0  0  0  0  0  0  0
   11.3792   17.0534   21.6050 O   0  0  0  0  0  0  0  0  0  0  0  0
   10.6558   15.0830   22.6724 C   0  0  1  0  0  0  0  0  0  0  0  0
   11.4662   15.5440   23.8673 C   0  0  0  0  0  0  0  0  0  0  0  0
   10.8944   14.9324   25.1149 C   0  0  0  0  0  0  0  0  0  0  0  0
    9.3828   15.1107   25.0349 C   0  0  0  0  0  0  0  0  0  0  0  0
    8.7405   14.1499   24.0530 N   0  0  0  0  0  0  0  0  0  0  0  0
    7.4422   13.7779   24.5131 C   0  0  0  0  0  0  0  0  0  0  0  0
    6.3704   14.2692   24.3012 O   0  0  0  0  0  0  0  0  0  0  0  0
    7.6623   12.4735   25.3089 C   0  0  2  0  0  0  0  0  0  0  0  0
    7.9761   11.4278   24.2356 C   0  0  0  0  0  0  0  0  0  0  0  0
    8.1669   10.0320   24.7467 C   0  0  0  0  0  0  0  0  0  0  0  0
    6.6861    9.4168   25.5501 S   0  0  0  0  0  0  0  0  0  0  0  0
    6.1168   10.8125   26.4726 C   0  0  0  0  0  0  0  0  0  0  0  0
    5.1488   10.5282   27.4483 C   0  0  0  0  0  0  0  0  0  0  0  0
    4.6307   11.5350   28.2553 C   0  0  0  0  0  0  0  0  0  0  0  0
    5.0792   12.8378   28.0938 C   0  0  0  0  0  0  0  0  0  0  0  0
    6.0434   13.1277   27.1285 C   0  0  0  0  0  0  0  0  0  0  0  0
    6.5671   12.1243   26.2910 C   0  0  0  0  0  0  0  0  0  0  0  0
    9.1711   15.2088   23.0634 C   0  0  0  0  0  0  0  0  0  0  0  0
  1  2  1  0
  2  3  1  0
  3  4  2  0
  5  3  1  6
  5  6  1  0
  6  7  1  0
  7  8  1  0
  8  9  1  0
  9 10  1  0
 10 11  2  0
 12 10  1  6
 12 13  1  0
 13 14  1  0
 14 15  1  0
 15 16  1  0
 16 17  2  0
 17 18  1  0
 18 19  2  0
 19 20  1  0
 20 21  2  0
  9 22  1  0
 22  5  1  0
 21 12  1  0
 21 16  1  0
M  END
>  <alias>  (85) 
None

>  <Experiment code>  (85) 
nan

>  <CrystalformSites upload name>  (85) 
nan

>  <inchikey>  (85) 
BHXXNDRDFMGLNO-GXTWGEPZSA-N

>  <Crystalforms upload name>  (85) 
nan

>  <Quatassemblies upload name>  (85) 
nan

>  <ConformerSites alias>  (85) 
nan

>  <ConformerSites short tag>  (85) 
nan

>  <Crystalforms short tag>  (85) 
nan

>  <Centroid res>  (85) 
nan

>  <Quatassemblies short tag>  (85) 
nan

>  <observation_longname>  (85) 
nan

>  <name>  (85) 
BHXXNDRDFMGLNO-GXTWGEPZSA-N

>  <CanonSites upload name>  (85) 
nan

>  <tags>  (85) 
[]

>  <energy_score>  (85) 
12.537449

>  <original SMILES>  (85) 
CNC(=O)[C@H]1CCCN(C(=O)[C@@H]2CCSc3ccccc32)C1

>  <ref_mols>  (85) 
A4386a

>  <Pose>  (85) 
nan

>  <distance_score>  (85) 
2.008585

>  <ConformerSites upload name>  (85) 
nan

>  <HIPPO Pose ID>  (85) 
208667

>  <Crystalforms alias>  (85) 
nan

>  <original ID>  (85) 
BHXXNDRDFMGLNO-GXTWGEPZSA-N

>  <CanonSites alias>  (85) 
nan

>  <CrystalformSites alias>  (85) 
nan

>  <ref_pdb>  (85) 
A4386a

>  <CanonSites short tag>  (85) 
nan

>  <Quatassemblies alias>  (85) 
nan

>  <HIPPO Compound ID>  (85) 
122996

>  <CrystalformSites short tag>  (85) 
nan

$$$$
JXKWTIAEYKUFKO-WBMJQRKESA-N
     RDKit          3D

 22 24  0  0  0  0  0  0  0  0999 V2000
   10.0217   16.8767   19.1785 N   0  0  0  0  0  0  0  0  0  0  0  0
   10.6916   15.9032   20.0127 C   0  0  0  0  0  0  0  0  0  0  0  0
   11.4183   14.9971   19.7237 O   0  0  0  0  0  0  0  0  0  0  0  0
   10.2252   16.1338   21.4772 C   0  0  2  0  0  0  0  0  0  0  0  0
    9.7710   17.5077   21.5622 O   0  0  0  0  0  0  0  0  0  0  0  0
   11.3065   15.8462   22.4935 C   0  0  0  0  0  0  0  0  0  0  0  0
   10.6572   15.8740   23.8665 C   0  0  0  0  0  0  0  0  0  0  0  0
    9.1684   15.5065   23.7581 C   0  0  0  0  0  0  0  0  0  0  0  0
    8.9624   14.2556   22.9378 N   0  0  0  0  0  0  0  0  0  0  0  0
    7.8937   13.4855   23.4791 C   0  0  0  0  0  0  0  0  0  0  0  0
    6.7184   13.5009   23.2326 O   0  0  0  0  0  0  0  0  0  0  0  0
    8.4921   12.4294   24.4617 C   0  0  2  0  0  0  0  0  0  0  0  0
    9.0389   11.3614   23.5148 C   0  0  0  0  0  0  0  0  0  0  0  0
    9.3169    9.9767   24.0168 C   0  0  0  0  0  0  0  0  0  0  0  0
    7.8900    9.2513   24.8216 S   0  0  0  0  0  0  0  0  0  0  0  0
    7.1233   10.6146   25.6492 C   0  0  0  0  0  0  0  0  0  0  0  0
    6.0884   10.2712   26.5375 C   0  0  0  0  0  0  0  0  0  0  0  0
    5.4283   11.2395   27.2888 C   0  0  0  0  0  0  0  0  0  0  0  0
    5.7952   12.5696   27.1573 C   0  0  0  0  0  0  0  0  0  0  0  0
    6.8031   12.9239   26.2605 C   0  0  0  0  0  0  0  0  0  0  0  0
    7.4658   11.9573   25.4734 C   0  0  0  0  0  0  0  0  0  0  0  0
    8.9815   15.2618   21.7971 C   0  0  0  0  0  0  0  0  0  0  0  0
  1  2  1  0
  2  3  2  0
  2  4  1  0
  4  5  1  6
  4  6  1  0
  6  7  1  0
  7  8  1  0
  8  9  1  0
  9 10  1  0
 10 11  2  0
 12 10  1  6
 12 13  1  0
 13 14  1  0
 14 15  1  0
 15 16  1  0
 16 17  2  0
 17 18  1  0
 18 19  2  0
 19 20  1  0
 20 21  2  0
  9 22  1  0
 22  4  1  0
 21 12  1  0
 21 16  1  0
M  END
>  <alias>  (86) 
None

>  <Experiment code>  (86) 
nan

>  <CrystalformSites upload name>  (86) 
nan

>  <inchikey>  (86) 
JXKWTIAEYKUFKO-WBMJQRKESA-N

>  <Crystalforms upload name>  (86) 
nan

>  <Quatassemblies upload name>  (86) 
nan

>  <ConformerSites alias>  (86) 
nan

>  <ConformerSites short tag>  (86) 
nan

>  <Crystalforms short tag>  (86) 
nan

>  <Centroid res>  (86) 
nan

>  <Quatassemblies short tag>  (86) 
nan

>  <observation_longname>  (86) 
nan

>  <name>  (86) 
JXKWTIAEYKUFKO-WBMJQRKESA-N

>  <CanonSites upload name>  (86) 
nan

>  <tags>  (86) 
[]

>  <energy_score>  (86) 
151.65537

>  <original SMILES>  (86) 
NC(=O)[C@]1(O)CCCN(C(=O)[C@@H]2CCSc3ccccc32)C1

>  <ref_mols>  (86) 
A4386a

>  <Pose>  (86) 
nan

>  <distance_score>  (86) 
1.100652

>  <ConformerSites upload name>  (86) 
nan

>  <HIPPO Pose ID>  (86) 
208724

>  <Crystalforms alias>  (86) 
nan

>  <original ID>  (86) 
JXKWTIAEYKUFKO-WBMJQRKESA-N

>  <CanonSites alias>  (86) 
nan

>  <CrystalformSites alias>  (86) 
nan

>  <ref_pdb>  (86) 
A4386a

>  <CanonSites short tag>  (86) 
nan

>  <Quatassemblies alias>  (86) 
nan

>  <HIPPO Compound ID>  (86) 
123011

>  <CrystalformSites short tag>  (86) 
nan

$$$$
JXKWTIAEYKUFKO-MLGOLLRUSA-N
     RDKit          3D

 22 24  0  0  0  0  0  0  0  0999 V2000
   11.9555   15.4841   19.2997 N   0  0  0  0  0  0  0  0  0  0  0  0
   10.6150   15.7799   19.7473 C   0  0  0  0  0  0  0  0  0  0  0  0
    9.6904   16.2726   19.1685 O   0  0  0  0  0  0  0  0  0  0  0  0
   10.4920   15.3677   21.2321 C   0  0  1  0  0  0  0  0  0  0  0  0
   11.3915   14.2626   21.4668 O   0  0  0  0  0  0  0  0  0  0  0  0
   10.9406   16.5120   22.1215 C   0  0  0  0  0  0  0  0  0  0  0  0
   10.3861   16.2394   23.5043 C   0  0  0  0  0  0  0  0  0  0  0  0
    8.9144   15.8176   23.3796 C   0  0  0  0  0  0  0  0  0  0  0  0
    8.7883   14.3688   22.9257 N   0  0  0  0  0  0  0  0  0  0  0  0
    7.6069   13.7771   23.4811 C   0  0  0  0  0  0  0  0  0  0  0  0
    6.4901   13.7133   23.0478 O   0  0  0  0  0  0  0  0  0  0  0  0
    7.9966   13.1748   24.8544 C   0  0  2  0  0  0  0  0  0  0  0  0
    9.2648   12.3271   24.7553 C   0  0  0  0  0  0  0  0  0  0  0  0
    9.0302   11.0244   24.0190 C   0  0  0  0  0  0  0  0  0  0  0  0
    7.9502    9.9088   24.9331 S   0  0  0  0  0  0  0  0  0  0  0  0
    6.8173   11.0453   25.7003 C   0  0  0  0  0  0  0  0  0  0  0  0
    5.8185   10.4553   26.4925 C   0  0  0  0  0  0  0  0  0  0  0  0
    4.8877   11.2374   27.1712 C   0  0  0  0  0  0  0  0  0  0  0  0
    4.9303   12.6194   27.0455 C   0  0  0  0  0  0  0  0  0  0  0  0
    5.9190   13.2172   26.2638 C   0  0  0  0  0  0  0  0  0  0  0  0
    6.8892   12.4443   25.5975 C   0  0  0  0  0  0  0  0  0  0  0  0
    9.0326   14.9987   21.5757 C   0  0  0  0  0  0  0  0  0  0  0  0
  1  2  1  0
  2  3  2  0
  2  4  1  0
  4  5  1  6
  4  6  1  0
  6  7  1  0
  7  8  1  0
  8  9  1  0
  9 10  1  0
 10 11  2  0
 12 10  1  6
 12 13  1  0
 13 14  1  0
 14 15  1  0
 15 16  1  0
 16 17  2  0
 17 18  1  0
 18 19  2  0
 19 20  1  0
 20 21  2  0
  9 22  1  0
 22  4  1  0
 21 12  1  0
 21 16  1  0
M  END
>  <alias>  (87) 
None

>  <Experiment code>  (87) 
nan

>  <CrystalformSites upload name>  (87) 
nan

>  <inchikey>  (87) 
JXKWTIAEYKUFKO-MLGOLLRUSA-N

>  <Crystalforms upload name>  (87) 
nan

>  <Quatassemblies upload name>  (87) 
nan

>  <ConformerSites alias>  (87) 
nan

>  <ConformerSites short tag>  (87) 
nan

>  <Crystalforms short tag>  (87) 
nan

>  <Centroid res>  (87) 
nan

>  <Quatassemblies short tag>  (87) 
nan

>  <observation_longname>  (87) 
nan

>  <name>  (87) 
JXKWTIAEYKUFKO-MLGOLLRUSA-N

>  <CanonSites upload name>  (87) 
nan

>  <tags>  (87) 
[]

>  <energy_score>  (87) 
114.585678

>  <original SMILES>  (87) 
NC(=O)[C@@]1(O)CCCN(C(=O)[C@@H]2CCSc3ccccc32)C1

>  <ref_mols>  (87) 
A4386a

>  <Pose>  (87) 
nan

>  <distance_score>  (87) 
1.271058

>  <ConformerSites upload name>  (87) 
nan

>  <HIPPO Pose ID>  (87) 
208725

>  <Crystalforms alias>  (87) 
nan

>  <original ID>  (87) 
JXKWTIAEYKUFKO-MLGOLLRUSA-N

>  <CanonSites alias>  (87) 
nan

>  <CrystalformSites alias>  (87) 
nan

>  <ref_pdb>  (87) 
A4386a

>  <CanonSites short tag>  (87) 
nan

>  <Quatassemblies alias>  (87) 
nan

>  <HIPPO Compound ID>  (87) 
123011

>  <CrystalformSites short tag>  (87) 
nan

$$$$
JXKWTIAEYKUFKO-WBMJQRKESA-N
     RDKit          3D

 22 24  0  0  0  0  0  0  0  0999 V2000
   10.7090   14.6477   19.2344 N   0  0  0  0  0  0  0  0  0  0  0  0
   10.3720   15.9299   19.7969 C   0  0  0  0  0  0  0  0  0  0  0  0
   10.2031   16.9951   19.2687 O   0  0  0  0  0  0  0  0  0  0  0  0
   10.2471   15.9472   21.3676 C   0  0  2  0  0  0  0  0  0  0  0  0
   10.2408   17.3341   21.7674 O   0  0  0  0  0  0  0  0  0  0  0  0
   11.4144   15.3565   22.1389 C   0  0  0  0  0  0  0  0  0  0  0  0
   11.0484   15.3942   23.6175 C   0  0  0  0  0  0  0  0  0  0  0  0
    9.5241   15.4059   23.7813 C   0  0  0  0  0  0  0  0  0  0  0  0
    8.9040   14.2806   22.9901 N   0  0  0  0  0  0  0  0  0  0  0  0
    7.8187   13.7066   23.7223 C   0  0  0  0  0  0  0  0  0  0  0  0
    6.6493   13.9757   23.7207 O   0  0  0  0  0  0  0  0  0  0  0  0
    8.3879   12.5201   24.5846 C   0  0  2  0  0  0  0  0  0  0  0  0
    8.8785   11.5005   23.5573 C   0  0  0  0  0  0  0  0  0  0  0  0
    9.2004   10.1032   24.0021 C   0  0  0  0  0  0  0  0  0  0  0  0
    7.8268    9.3162   24.8378 S   0  0  0  0  0  0  0  0  0  0  0  0
    7.0454   10.6417   25.7123 C   0  0  0  0  0  0  0  0  0  0  0  0
    6.0260   10.2492   26.5991 C   0  0  0  0  0  0  0  0  0  0  0  0
    5.3694   11.1754   27.4039 C   0  0  0  0  0  0  0  0  0  0  0  0
    5.7286   12.5115   27.3324 C   0  0  0  0  0  0  0  0  0  0  0  0
    6.7212   12.9143   26.4386 C   0  0  0  0  0  0  0  0  0  0  0  0
    7.3722   11.9947   25.5869 C   0  0  0  0  0  0  0  0  0  0  0  0
    8.9134   15.3441   21.8846 C   0  0  0  0  0  0  0  0  0  0  0  0
  1  2  1  0
  2  3  2  0
  2  4  1  0
  4  5  1  1
  4  6  1  0
  6  7  1  0
  7  8  1  0
  8  9  1  0
  9 10  1  0
 10 11  2  0
 12 10  1  6
 12 13  1  0
 13 14  1  0
 14 15  1  0
 15 16  1  0
 16 17  2  0
 17 18  1  0
 18 19  2  0
 19 20  1  0
 20 21  2  0
  9 22  1  0
 22  4  1  0
 21 12  1  0
 21 16  1  0
M  END
>  <alias>  (88) 
None

>  <Experiment code>  (88) 
nan

>  <CrystalformSites upload name>  (88) 
nan

>  <inchikey>  (88) 
JXKWTIAEYKUFKO-WBMJQRKESA-N

>  <Crystalforms upload name>  (88) 
nan

>  <Quatassemblies upload name>  (88) 
nan

>  <ConformerSites alias>  (88) 
nan

>  <ConformerSites short tag>  (88) 
nan

>  <Crystalforms short tag>  (88) 
nan

>  <Centroid res>  (88) 
nan

>  <Quatassemblies short tag>  (88) 
nan

>  <observation_longname>  (88) 
nan

>  <name>  (88) 
JXKWTIAEYKUFKO-WBMJQRKESA-N

>  <CanonSites upload name>  (88) 
nan

>  <tags>  (88) 
[]

>  <energy_score>  (88) 
137.359146

>  <original SMILES>  (88) 
NC(=O)[C@]1(O)CCCN(C(=O)[C@@H]2CCSc3ccccc32)C1

>  <ref_mols>  (88) 
A4386a

>  <Pose>  (88) 
nan

>  <distance_score>  (88) 
1.077338

>  <ConformerSites upload name>  (88) 
nan

>  <HIPPO Pose ID>  (88) 
208726

>  <Crystalforms alias>  (88) 
nan

>  <original ID>  (88) 
JXKWTIAEYKUFKO-WBMJQRKESA-N

>  <CanonSites alias>  (88) 
nan

>  <CrystalformSites alias>  (88) 
nan

>  <ref_pdb>  (88) 
A4386a

>  <CanonSites short tag>  (88) 
nan

>  <Quatassemblies alias>  (88) 
nan

>  <HIPPO Compound ID>  (88) 
123011

>  <CrystalformSites short tag>  (88) 
nan

$$$$
JXKWTIAEYKUFKO-MLGOLLRUSA-N
     RDKit          3D

 22 24  0  0  0  0  0  0  0  0999 V2000
   11.9569   15.4713   19.3115 N   0  0  0  0  0  0  0  0  0  0  0  0
   10.6131   15.7666   19.7503 C   0  0  0  0  0  0  0  0  0  0  0  0
    9.6890   16.2493   19.1625 O   0  0  0  0  0  0  0  0  0  0  0  0
   10.4867   15.3634   21.2370 C   0  0  1  0  0  0  0  0  0  0  0  0
   11.3881   14.2603   21.4771 O   0  0  0  0  0  0  0  0  0  0  0  0
   10.9326   16.5112   22.1228 C   0  0  0  0  0  0  0  0  0  0  0  0
   10.3801   16.2384   23.5064 C   0  0  0  0  0  0  0  0  0  0  0  0
    8.9088   15.8146   23.3830 C   0  0  0  0  0  0  0  0  0  0  0  0
    8.7819   14.3657   22.9291 N   0  0  0  0  0  0  0  0  0  0  0  0
    7.5996   13.7750   23.4839 C   0  0  0  0  0  0  0  0  0  0  0  0
    6.4829   13.7121   23.0497 O   0  0  0  0  0  0  0  0  0  0  0  0
    7.9877   13.1733   24.8579 C   0  0  2  0  0  0  0  0  0  0  0  0
    9.2515   12.3183   24.7615 C   0  0  0  0  0  0  0  0  0  0  0  0
    9.0123   11.0117   24.0331 C   0  0  0  0  0  0  0  0  0  0  0  0
    7.9183    9.9105   24.9483 S   0  0  0  0  0  0  0  0  0  0  0  0
    6.7958   11.0568   25.7138 C   0  0  0  0  0  0  0  0  0  0  0  0
    5.7947   10.4759   26.5099 C   0  0  0  0  0  0  0  0  0  0  0  0
    4.8682   11.2662   27.1848 C   0  0  0  0  0  0  0  0  0  0  0  0
    4.9182   12.6473   27.0523 C   0  0  0  0  0  0  0  0  0  0  0  0
    5.9103   13.2360   26.2680 C   0  0  0  0  0  0  0  0  0  0  0  0
    6.8758   12.4545   25.6049 C   0  0  0  0  0  0  0  0  0  0  0  0
    9.0274   14.9951   21.5797 C   0  0  0  0  0  0  0  0  0  0  0  0
  1  2  1  0
  2  3  2  0
  2  4  1  0
  4  5  1  6
  4  6  1  0
  6  7  1  0
  7  8  1  0
  8  9  1  0
  9 10  1  0
 10 11  2  0
 12 10  1  6
 12 13  1  0
 13 14  1  0
 14 15  1  0
 15 16  1  0
 16 17  2  0
 17 18  1  0
 18 19  2  0
 19 20  1  0
 20 21  2  0
  9 22  1  0
 22  4  1  0
 21 12  1  0
 21 16  1  0
M  END
>  <alias>  (89) 
None

>  <Experiment code>  (89) 
nan

>  <CrystalformSites upload name>  (89) 
nan

>  <inchikey>  (89) 
JXKWTIAEYKUFKO-MLGOLLRUSA-N

>  <Crystalforms upload name>  (89) 
nan

>  <Quatassemblies upload name>  (89) 
nan

>  <ConformerSites alias>  (89) 
nan

>  <ConformerSites short tag>  (89) 
nan

>  <Crystalforms short tag>  (89) 
nan

>  <Centroid res>  (89) 
nan

>  <Quatassemblies short tag>  (89) 
nan

>  <observation_longname>  (89) 
nan

>  <name>  (89) 
JXKWTIAEYKUFKO-MLGOLLRUSA-N

>  <CanonSites upload name>  (89) 
nan

>  <tags>  (89) 
[]

>  <energy_score>  (89) 
128.319705

>  <original SMILES>  (89) 
NC(=O)[C@@]1(O)CCCN(C(=O)[C@@H]2CCSc3ccccc32)C1

>  <ref_mols>  (89) 
A4386a

>  <Pose>  (89) 
nan

>  <distance_score>  (89) 
1.285379

>  <ConformerSites upload name>  (89) 
nan

>  <HIPPO Pose ID>  (89) 
208727

>  <Crystalforms alias>  (89) 
nan

>  <original ID>  (89) 
JXKWTIAEYKUFKO-MLGOLLRUSA-N

>  <CanonSites alias>  (89) 
nan

>  <CrystalformSites alias>  (89) 
nan

>  <ref_pdb>  (89) 
A4386a

>  <CanonSites short tag>  (89) 
nan

>  <Quatassemblies alias>  (89) 
nan

>  <HIPPO Compound ID>  (89) 
123011

>  <CrystalformSites short tag>  (89) 
nan

$$$$
FMDNAOXFOKFOHX-WBMJQRKESA-N
     RDKit          3D

 22 24  0  0  0  0  0  0  0  0999 V2000
   10.9562   14.6669   19.3763 N   0  0  0  0  0  0  0  0  0  0  0  0
   10.4353   15.9569   19.7661 C   0  0  0  0  0  0  0  0  0  0  0  0
   10.3073   16.9699   19.1354 O   0  0  0  0  0  0  0  0  0  0  0  0
   10.0469   16.0570   21.3103 C   0  0  2  0  0  0  0  0  0  0  0  0
    9.5788   17.4438   21.5774 N   0  0  0  0  0  0  0  0  0  0  0  0
   11.2005   15.7835   22.2658 C   0  0  0  0  0  0  0  0  0  0  0  0
   10.6376   15.7875   23.6825 C   0  0  0  0  0  0  0  0  0  0  0  0
    9.1433   15.4146   23.6600 C   0  0  0  0  0  0  0  0  0  0  0  0
    8.9039   14.1571   22.8541 N   0  0  0  0  0  0  0  0  0  0  0  0
    7.8766   13.3783   23.4569 C   0  0  0  0  0  0  0  0  0  0  0  0
    6.6900   13.3809   23.2773 O   0  0  0  0  0  0  0  0  0  0  0  0
    8.5235   12.3465   24.4336 C   0  0  2  0  0  0  0  0  0  0  0  0
    9.0910   11.2781   23.5027 C   0  0  0  0  0  0  0  0  0  0  0  0
    9.3620    9.8975   24.0220 C   0  0  0  0  0  0  0  0  0  0  0  0
    7.9048    9.1846   24.7789 S   0  0  0  0  0  0  0  0  0  0  0  0
    7.1572   10.5402   25.6316 C   0  0  0  0  0  0  0  0  0  0  0  0
    6.1188   10.2037   26.5178 C   0  0  0  0  0  0  0  0  0  0  0  0
    5.4749   11.1737   27.2813 C   0  0  0  0  0  0  0  0  0  0  0  0
    5.8626   12.4991   27.1645 C   0  0  0  0  0  0  0  0  0  0  0  0
    6.8731   12.8468   26.2681 C   0  0  0  0  0  0  0  0  0  0  0  0
    7.5174   11.8776   25.4678 C   0  0  0  0  0  0  0  0  0  0  0  0
    8.8468   15.1602   21.7115 C   0  0  0  0  0  0  0  0  0  0  0  0
  1  2  1  0
  2  3  2  0
  2  4  1  0
  4  5  1  6
  4  6  1  0
  6  7  1  0
  7  8  1  0
  8  9  1  0
  9 10  1  0
 10 11  2  0
 12 10  1  6
 12 13  1  0
 13 14  1  0
 14 15  1  0
 15 16  1  0
 16 17  2  0
 17 18  1  0
 18 19  2  0
 19 20  1  0
 20 21  2  0
  9 22  1  0
 22  4  1  0
 21 12  1  0
 21 16  1  0
M  END
>  <alias>  (90) 
None

>  <Experiment code>  (90) 
nan

>  <CrystalformSites upload name>  (90) 
nan

>  <inchikey>  (90) 
FMDNAOXFOKFOHX-WBMJQRKESA-N

>  <Crystalforms upload name>  (90) 
nan

>  <Quatassemblies upload name>  (90) 
nan

>  <ConformerSites alias>  (90) 
nan

>  <ConformerSites short tag>  (90) 
nan

>  <Crystalforms short tag>  (90) 
nan

>  <Centroid res>  (90) 
nan

>  <Quatassemblies short tag>  (90) 
nan

>  <observation_longname>  (90) 
nan

>  <name>  (90) 
FMDNAOXFOKFOHX-WBMJQRKESA-N

>  <CanonSites upload name>  (90) 
nan

>  <tags>  (90) 
[]

>  <energy_score>  (90) 
81.826384

>  <original SMILES>  (90) 
NC(=O)[C@]1(N)CCCN(C(=O)[C@@H]2CCSc3ccccc32)C1

>  <ref_mols>  (90) 
A4386a

>  <Pose>  (90) 
nan

>  <distance_score>  (90) 
1.269492

>  <ConformerSites upload name>  (90) 
nan

>  <HIPPO Pose ID>  (90) 
208909

>  <Crystalforms alias>  (90) 
nan

>  <original ID>  (90) 
FMDNAOXFOKFOHX-WBMJQRKESA-N

>  <CanonSites alias>  (90) 
nan

>  <CrystalformSites alias>  (90) 
nan

>  <ref_pdb>  (90) 
A4386a

>  <CanonSites short tag>  (90) 
nan

>  <Quatassemblies alias>  (90) 
nan

>  <HIPPO Compound ID>  (90) 
123060

>  <CrystalformSites short tag>  (90) 
nan

$$$$
FMDNAOXFOKFOHX-MLGOLLRUSA-N
     RDKit          3D

 22 24  0  0  0  0  0  0  0  0999 V2000
   11.9211   15.4852   19.3359 N   0  0  0  0  0  0  0  0  0  0  0  0
   10.5882   15.8258   19.7678 C   0  0  0  0  0  0  0  0  0  0  0  0
    9.6884   16.3521   19.1799 O   0  0  0  0  0  0  0  0  0  0  0  0
   10.4500   15.4228   21.2605 C   0  0  1  0  0  0  0  0  0  0  0  0
   11.3917   14.2807   21.5307 N   0  0  0  0  0  0  0  0  0  0  0  0
   10.8646   16.5828   22.1509 C   0  0  0  0  0  0  0  0  0  0  0  0
   10.3265   16.2981   23.5381 C   0  0  0  0  0  0  0  0  0  0  0  0
    8.8618   15.8496   23.4178 C   0  0  0  0  0  0  0  0  0  0  0  0
    8.7561   14.4031   22.9444 N   0  0  0  0  0  0  0  0  0  0  0  0
    7.5852   13.7855   23.4970 C   0  0  0  0  0  0  0  0  0  0  0  0
    6.4678   13.7103   23.0672 O   0  0  0  0  0  0  0  0  0  0  0  0
    7.9830   13.1759   24.8653 C   0  0  2  0  0  0  0  0  0  0  0  0
    9.2466   12.3231   24.7559 C   0  0  0  0  0  0  0  0  0  0  0  0
    9.0037   11.0186   24.0254 C   0  0  0  0  0  0  0  0  0  0  0  0
    7.9211    9.9124   24.9464 S   0  0  0  0  0  0  0  0  0  0  0  0
    6.7975   11.0538   25.7176 C   0  0  0  0  0  0  0  0  0  0  0  0
    5.7987   10.4684   26.5130 C   0  0  0  0  0  0  0  0  0  0  0  0
    4.8724   11.2546   27.1929 C   0  0  0  0  0  0  0  0  0  0  0  0
    4.9206   12.6363   27.0664 C   0  0  0  0  0  0  0  0  0  0  0  0
    5.9103   13.2296   26.2825 C   0  0  0  0  0  0  0  0  0  0  0  0
    6.8753   12.4521   25.6140 C   0  0  0  0  0  0  0  0  0  0  0  0
    8.9855   15.0565   21.5977 C   0  0  0  0  0  0  0  0  0  0  0  0
  1  2  1  0
  2  3  2  0
  2  4  1  0
  4  5  1  6
  4  6  1  0
  6  7  1  0
  7  8  1  0
  8  9  1  0
  9 10  1  0
 10 11  2  0
 12 10  1  6
 12 13  1  0
 13 14  1  0
 14 15  1  0
 15 16  1  0
 16 17  2  0
 17 18  1  0
 18 19  2  0
 19 20  1  0
 20 21  2  0
  9 22  1  0
 22  4  1  0
 21 12  1  0
 21 16  1  0
M  END
>  <alias>  (91) 
None

>  <Experiment code>  (91) 
nan

>  <CrystalformSites upload name>  (91) 
nan

>  <inchikey>  (91) 
FMDNAOXFOKFOHX-MLGOLLRUSA-N

>  <Crystalforms upload name>  (91) 
nan

>  <Quatassemblies upload name>  (91) 
nan

>  <ConformerSites alias>  (91) 
nan

>  <ConformerSites short tag>  (91) 
nan

>  <Crystalforms short tag>  (91) 
nan

>  <Centroid res>  (91) 
nan

>  <Quatassemblies short tag>  (91) 
nan

>  <observation_longname>  (91) 
nan

>  <name>  (91) 
FMDNAOXFOKFOHX-MLGOLLRUSA-N

>  <CanonSites upload name>  (91) 
nan

>  <tags>  (91) 
[]

>  <energy_score>  (91) 
55.100707

>  <original SMILES>  (91) 
NC(=O)[C@@]1(N)CCCN(C(=O)[C@@H]2CCSc3ccccc32)C1

>  <ref_mols>  (91) 
A4386a

>  <Pose>  (91) 
nan

>  <distance_score>  (91) 
1.288448

>  <ConformerSites upload name>  (91) 
nan

>  <HIPPO Pose ID>  (91) 
208910

>  <Crystalforms alias>  (91) 
nan

>  <original ID>  (91) 
FMDNAOXFOKFOHX-MLGOLLRUSA-N

>  <CanonSites alias>  (91) 
nan

>  <CrystalformSites alias>  (91) 
nan

>  <ref_pdb>  (91) 
A4386a

>  <CanonSites short tag>  (91) 
nan

>  <Quatassemblies alias>  (91) 
nan

>  <HIPPO Compound ID>  (91) 
123060

>  <CrystalformSites short tag>  (91) 
nan

$$$$
FMDNAOXFOKFOHX-WBMJQRKESA-N
     RDKit          3D

 22 24  0  0  0  0  0  0  0  0999 V2000
   10.9521   14.6690   19.3695 N   0  0  0  0  0  0  0  0  0  0  0  0
   10.4342   15.9583   19.7645 C   0  0  0  0  0  0  0  0  0  0  0  0
   10.3051   16.9732   19.1367 O   0  0  0  0  0  0  0  0  0  0  0  0
   10.0498   16.0548   21.3099 C   0  0  2  0  0  0  0  0  0  0  0  0
    9.5847   17.4422   21.5811 N   0  0  0  0  0  0  0  0  0  0  0  0
   11.2050   15.7775   22.2622 C   0  0  0  0  0  0  0  0  0  0  0  0
   10.6452   15.7809   23.6800 C   0  0  0  0  0  0  0  0  0  0  0  0
    9.1501   15.4117   23.6602 C   0  0  0  0  0  0  0  0  0  0  0  0
    8.9056   14.1556   22.8542 N   0  0  0  0  0  0  0  0  0  0  0  0
    7.8774   13.3792   23.4588 C   0  0  0  0  0  0  0  0  0  0  0  0
    6.6904   13.3852   23.2818 O   0  0  0  0  0  0  0  0  0  0  0  0
    8.5241   12.3456   24.4338 C   0  0  2  0  0  0  0  0  0  0  0  0
    9.0898   11.2776   23.5016 C   0  0  0  0  0  0  0  0  0  0  0  0
    9.3623    9.8971   24.0202 C   0  0  0  0  0  0  0  0  0  0  0  0
    7.9062    9.1837   24.7796 S   0  0  0  0  0  0  0  0  0  0  0  0
    7.1580   10.5392   25.6318 C   0  0  0  0  0  0  0  0  0  0  0  0
    6.1193   10.2026   26.5175 C   0  0  0  0  0  0  0  0  0  0  0  0
    5.4751   11.1724   27.2811 C   0  0  0  0  0  0  0  0  0  0  0  0
    5.8630   12.4977   27.1649 C   0  0  0  0  0  0  0  0  0  0  0  0
    6.8737   12.8456   26.2689 C   0  0  0  0  0  0  0  0  0  0  0  0
    7.5181   11.8766   25.4683 C   0  0  0  0  0  0  0  0  0  0  0  0
    8.8488   15.1595   21.7122 C   0  0  0  0  0  0  0  0  0  0  0  0
  1  2  1  0
  2  3  2  0
  2  4  1  0
  4  5  1  6
  4  6  1  0
  6  7  1  0
  7  8  1  0
  8  9  1  0
  9 10  1  0
 10 11  2  0
 12 10  1  6
 12 13  1  0
 13 14  1  0
 14 15  1  0
 15 16  1  0
 16 17  2  0
 17 18  1  0
 18 19  2  0
 19 20  1  0
 20 21  2  0
  9 22  1  0
 22  4  1  0
 21 12  1  0
 21 16  1  0
M  END
>  <alias>  (92) 
None

>  <Experiment code>  (92) 
nan

>  <CrystalformSites upload name>  (92) 
nan

>  <inchikey>  (92) 
FMDNAOXFOKFOHX-WBMJQRKESA-N

>  <Crystalforms upload name>  (92) 
nan

>  <Quatassemblies upload name>  (92) 
nan

>  <ConformerSites alias>  (92) 
nan

>  <ConformerSites short tag>  (92) 
nan

>  <Crystalforms short tag>  (92) 
nan

>  <Centroid res>  (92) 
nan

>  <Quatassemblies short tag>  (92) 
nan

>  <observation_longname>  (92) 
nan

>  <name>  (92) 
FMDNAOXFOKFOHX-WBMJQRKESA-N

>  <CanonSites upload name>  (92) 
nan

>  <tags>  (92) 
[]

>  <energy_score>  (92) 
-1.739403

>  <original SMILES>  (92) 
NC(=O)[C@]1(N)CCCN(C(=O)[C@@H]2CCSc3ccccc32)C1

>  <ref_mols>  (92) 
A4386a

>  <Pose>  (92) 
nan

>  <distance_score>  (92) 
1.062766

>  <ConformerSites upload name>  (92) 
nan

>  <HIPPO Pose ID>  (92) 
208911

>  <Crystalforms alias>  (92) 
nan

>  <original ID>  (92) 
FMDNAOXFOKFOHX-WBMJQRKESA-N

>  <CanonSites alias>  (92) 
nan

>  <CrystalformSites alias>  (92) 
nan

>  <ref_pdb>  (92) 
A4386a

>  <CanonSites short tag>  (92) 
nan

>  <Quatassemblies alias>  (92) 
nan

>  <HIPPO Compound ID>  (92) 
123060

>  <CrystalformSites short tag>  (92) 
nan

$$$$
FMDNAOXFOKFOHX-MLGOLLRUSA-N
     RDKit          3D

 22 24  0  0  0  0  0  0  0  0999 V2000
   11.9267   15.4798   19.3438 N   0  0  0  0  0  0  0  0  0  0  0  0
   10.5903   15.8143   19.7699 C   0  0  0  0  0  0  0  0  0  0  0  0
    9.6867   16.3252   19.1743 O   0  0  0  0  0  0  0  0  0  0  0  0
   10.4502   15.4196   21.2644 C   0  0  1  0  0  0  0  0  0  0  0  0
   11.3906   14.2771   21.5400 N   0  0  0  0  0  0  0  0  0  0  0  0
   10.8641   16.5822   22.1514 C   0  0  0  0  0  0  0  0  0  0  0  0
   10.3260   16.3000   23.5392 C   0  0  0  0  0  0  0  0  0  0  0  0
    8.8613   15.8510   23.4201 C   0  0  0  0  0  0  0  0  0  0  0  0
    8.7547   14.4040   22.9482 N   0  0  0  0  0  0  0  0  0  0  0  0
    7.5832   13.7877   23.5011 C   0  0  0  0  0  0  0  0  0  0  0  0
    6.4659   13.7129   23.0709 O   0  0  0  0  0  0  0  0  0  0  0  0
    7.9804   13.1782   24.8694 C   0  0  2  0  0  0  0  0  0  0  0  0
    9.2432   12.3242   24.7601 C   0  0  0  0  0  0  0  0  0  0  0  0
    8.9994   11.0201   24.0288 C   0  0  0  0  0  0  0  0  0  0  0  0
    7.9151    9.9152   24.9490 S   0  0  0  0  0  0  0  0  0  0  0  0
    6.7931   11.0573   25.7212 C   0  0  0  0  0  0  0  0  0  0  0  0
    5.7941   10.4724   26.5167 C   0  0  0  0  0  0  0  0  0  0  0  0
    4.8685   11.2591   27.1970 C   0  0  0  0  0  0  0  0  0  0  0  0
    4.9177   12.6409   27.0707 C   0  0  0  0  0  0  0  0  0  0  0  0
    5.9078   13.2336   26.2869 C   0  0  0  0  0  0  0  0  0  0  0  0
    6.8721   12.4555   25.6181 C   0  0  0  0  0  0  0  0  0  0  0  0
    8.9850   15.0557   21.6011 C   0  0  0  0  0  0  0  0  0  0  0  0
  1  2  1  0
  2  3  2  0
  2  4  1  0
  4  5  1  6
  4  6  1  0
  6  7  1  0
  7  8  1  0
  8  9  1  0
  9 10  1  0
 10 11  2  0
 12 10  1  6
 12 13  1  0
 13 14  1  0
 14 15  1  0
 15 16  1  0
 16 17  2  0
 17 18  1  0
 18 19  2  0
 19 20  1  0
 20 21  2  0
  9 22  1  0
 22  4  1  0
 21 12  1  0
 21 16  1  0
M  END
>  <alias>  (93) 
None

>  <Experiment code>  (93) 
nan

>  <CrystalformSites upload name>  (93) 
nan

>  <inchikey>  (93) 
FMDNAOXFOKFOHX-MLGOLLRUSA-N

>  <Crystalforms upload name>  (93) 
nan

>  <Quatassemblies upload name>  (93) 
nan

>  <ConformerSites alias>  (93) 
nan

>  <ConformerSites short tag>  (93) 
nan

>  <Crystalforms short tag>  (93) 
nan

>  <Centroid res>  (93) 
nan

>  <Quatassemblies short tag>  (93) 
nan

>  <observation_longname>  (93) 
nan

>  <name>  (93) 
FMDNAOXFOKFOHX-MLGOLLRUSA-N

>  <CanonSites upload name>  (93) 
nan

>  <tags>  (93) 
[]

>  <energy_score>  (93) 
133.000925

>  <original SMILES>  (93) 
NC(=O)[C@@]1(N)CCCN(C(=O)[C@@H]2CCSc3ccccc32)C1

>  <ref_mols>  (93) 
A4386a

>  <Pose>  (93) 
nan

>  <distance_score>  (93) 
1.292643

>  <ConformerSites upload name>  (93) 
nan

>  <HIPPO Pose ID>  (93) 
208912

>  <Crystalforms alias>  (93) 
nan

>  <original ID>  (93) 
FMDNAOXFOKFOHX-MLGOLLRUSA-N

>  <CanonSites alias>  (93) 
nan

>  <CrystalformSites alias>  (93) 
nan

>  <ref_pdb>  (93) 
A4386a

>  <CanonSites short tag>  (93) 
nan

>  <Quatassemblies alias>  (93) 
nan

>  <HIPPO Compound ID>  (93) 
123060

>  <CrystalformSites short tag>  (93) 
nan

$$$$
BGYFBBKSPJEOFR-MLGOLLRUSA-N
     RDKit          3D

 22 24  0  0  0  0  0  0  0  0999 V2000
   11.9439   15.9901   23.1651 N   0  0  0  0  0  0  0  0  0  0  0  0
   10.6286   16.0855   23.7910 C   0  0  0  0  0  0  0  0  0  0  0  0
   10.3048   16.5087   24.8707 O   0  0  0  0  0  0  0  0  0  0  0  0
    9.4713   15.5213   22.8505 C   0  0  1  0  0  0  0  0  0  0  0  0
    8.4319   14.9064   23.6707 N   0  0  0  0  0  0  0  0  0  0  0  0
    8.5200   14.1263   24.8726 C   0  0  0  0  0  0  0  0  0  0  0  0
    9.4634   13.8470   25.5577 O   0  0  0  0  0  0  0  0  0  0  0  0
    7.1451   13.5085   25.1988 C   0  0  2  0  0  0  0  0  0  0  0  0
    6.6366   14.0211   26.5407 C   0  0  0  0  0  0  0  0  0  0  0  0
    5.2772   13.4229   26.8544 C   0  0  0  0  0  0  0  0  0  0  0  0
    5.3773   11.6381   27.1646 S   0  0  0  0  0  0  0  0  0  0  0  0
    6.5616   11.1269   25.9322 C   0  0  0  0  0  0  0  0  0  0  0  0
    6.7917    9.7550   25.8207 C   0  0  0  0  0  0  0  0  0  0  0  0
    7.7659    9.2563   24.9522 C   0  0  0  0  0  0  0  0  0  0  0  0
    8.4795   10.0947   24.1255 C   0  0  0  0  0  0  0  0  0  0  0  0
    8.2175   11.4487   24.1856 C   0  0  0  0  0  0  0  0  0  0  0  0
    7.2966   11.9930   25.1195 C   0  0  0  0  0  0  0  0  0  0  0  0
    8.8632   16.6394   21.9961 C   0  0  0  0  0  0  0  0  0  0  0  0
    9.8286   17.1067   20.9142 C   0  0  0  0  0  0  0  0  0  0  0  0
   10.3427   15.9441   20.0699 C   0  0  0  0  0  0  0  0  0  0  0  0
   10.9500   14.9035   20.9260 N   0  0  0  0  0  0  0  0  0  0  0  0
    9.9568   14.4057   21.9025 C   0  0  0  0  0  0  0  0  0  0  0  0
  1  2  1  0
  2  3  2  0
  2  4  1  0
  4  5  1  1
  5  6  1  0
  6  7  2  0
  8  6  1  1
  8  9  1  0
  9 10  1  0
 10 11  1  0
 11 12  1  0
 12 13  2  0
 13 14  1  0
 14 15  2  0
 15 16  1  0
 16 17  2  0
  4 18  1  0
 18 19  1  0
 19 20  1  0
 20 21  1  0
 21 22  1  0
 22  4  1  0
 17  8  1  0
 17 12  1  0
M  END
>  <alias>  (94) 
None

>  <Experiment code>  (94) 
nan

>  <CrystalformSites upload name>  (94) 
nan

>  <inchikey>  (94) 
BGYFBBKSPJEOFR-MLGOLLRUSA-N

>  <Crystalforms upload name>  (94) 
nan

>  <Quatassemblies upload name>  (94) 
nan

>  <ConformerSites alias>  (94) 
nan

>  <ConformerSites short tag>  (94) 
nan

>  <Crystalforms short tag>  (94) 
nan

>  <Centroid res>  (94) 
nan

>  <Quatassemblies short tag>  (94) 
nan

>  <observation_longname>  (94) 
nan

>  <name>  (94) 
BGYFBBKSPJEOFR-MLGOLLRUSA-N

>  <CanonSites upload name>  (94) 
nan

>  <tags>  (94) 
[]

>  <energy_score>  (94) 
91.615654

>  <original SMILES>  (94) 
NC(=O)[C@@]1(NC(=O)[C@@H]2CCSc3ccccc32)CCCNC1

>  <ref_mols>  (94) 
A4386a

>  <Pose>  (94) 
nan

>  <distance_score>  (94) 
1.35765

>  <ConformerSites upload name>  (94) 
nan

>  <HIPPO Pose ID>  (94) 
209005

>  <Crystalforms alias>  (94) 
nan

>  <original ID>  (94) 
BGYFBBKSPJEOFR-MLGOLLRUSA-N

>  <CanonSites alias>  (94) 
nan

>  <CrystalformSites alias>  (94) 
nan

>  <ref_pdb>  (94) 
A4386a

>  <CanonSites short tag>  (94) 
nan

>  <Quatassemblies alias>  (94) 
nan

>  <HIPPO Compound ID>  (94) 
123083

>  <CrystalformSites short tag>  (94) 
nan

$$$$
BGYFBBKSPJEOFR-MLGOLLRUSA-N
     RDKit          3D

 22 24  0  0  0  0  0  0  0  0999 V2000
    6.9382   17.3636   23.4576 N   0  0  0  0  0  0  0  0  0  0  0  0
    7.8084   16.4042   24.1042 C   0  0  0  0  0  0  0  0  0  0  0  0
    7.8502   16.0315   25.2515 O   0  0  0  0  0  0  0  0  0  0  0  0
    8.8883   15.7041   23.1378 C   0  0  1  0  0  0  0  0  0  0  0  0
    8.9466   14.3661   23.7224 N   0  0  0  0  0  0  0  0  0  0  0  0
    8.0779   13.2459   23.5825 C   0  0  0  0  0  0  0  0  0  0  0  0
    7.1167   13.0833   22.8863 O   0  0  0  0  0  0  0  0  0  0  0  0
    8.5643   12.1181   24.5183 C   0  0  2  0  0  0  0  0  0  0  0  0
    9.0998   11.0762   23.5454 C   0  0  0  0  0  0  0  0  0  0  0  0
    9.3553    9.6985   24.0680 C   0  0  0  0  0  0  0  0  0  0  0  0
    7.8721    9.0242   24.8150 S   0  0  0  0  0  0  0  0  0  0  0  0
    7.0898   10.3786   25.6295 C   0  0  0  0  0  0  0  0  0  0  0  0
    6.0179   10.0641   26.4816 C   0  0  0  0  0  0  0  0  0  0  0  0
    5.3482   11.0504   27.2012 C   0  0  0  0  0  0  0  0  0  0  0  0
    5.7417   12.3720   27.0696 C   0  0  0  0  0  0  0  0  0  0  0  0
    6.7899   12.6960   26.2098 C   0  0  0  0  0  0  0  0  0  0  0  0
    7.4624   11.7061   25.4616 C   0  0  0  0  0  0  0  0  0  0  0  0
    8.6084   15.5354   21.6298 C   0  0  0  0  0  0  0  0  0  0  0  0
    9.5916   16.3369   20.7743 C   0  0  0  0  0  0  0  0  0  0  0  0
   11.0446   15.9620   21.1089 C   0  0  0  0  0  0  0  0  0  0  0  0
   11.2980   15.7230   22.5389 N   0  0  0  0  0  0  0  0  0  0  0  0
   10.2638   16.3649   23.3599 C   0  0  0  0  0  0  0  0  0  0  0  0
  1  2  1  0
  2  3  2  0
  2  4  1  0
  4  5  1  1
  5  6  1  0
  6  7  2  0
  8  6  1  6
  8  9  1  0
  9 10  1  0
 10 11  1  0
 11 12  1  0
 12 13  2  0
 13 14  1  0
 14 15  2  0
 15 16  1  0
 16 17  2  0
  4 18  1  0
 18 19  1  0
 19 20  1  0
 20 21  1  0
 21 22  1  0
 22  4  1  0
 17  8  1  0
 17 12  1  0
M  END
>  <alias>  (95) 
None

>  <Experiment code>  (95) 
nan

>  <CrystalformSites upload name>  (95) 
nan

>  <inchikey>  (95) 
BGYFBBKSPJEOFR-MLGOLLRUSA-N

>  <Crystalforms upload name>  (95) 
nan

>  <Quatassemblies upload name>  (95) 
nan

>  <ConformerSites alias>  (95) 
nan

>  <ConformerSites short tag>  (95) 
nan

>  <Crystalforms short tag>  (95) 
nan

>  <Centroid res>  (95) 
nan

>  <Quatassemblies short tag>  (95) 
nan

>  <observation_longname>  (95) 
nan

>  <name>  (95) 
BGYFBBKSPJEOFR-MLGOLLRUSA-N

>  <CanonSites upload name>  (95) 
nan

>  <tags>  (95) 
[]

>  <energy_score>  (95) 
-156.559653

>  <original SMILES>  (95) 
NC(=O)[C@@]1(NC(=O)[C@@H]2CCSc3ccccc32)CCCNC1

>  <ref_mols>  (95) 
A4386a

>  <Pose>  (95) 
nan

>  <distance_score>  (95) 
1.660878

>  <ConformerSites upload name>  (95) 
nan

>  <HIPPO Pose ID>  (95) 
209006

>  <Crystalforms alias>  (95) 
nan

>  <original ID>  (95) 
BGYFBBKSPJEOFR-MLGOLLRUSA-N

>  <CanonSites alias>  (95) 
nan

>  <CrystalformSites alias>  (95) 
nan

>  <ref_pdb>  (95) 
A4386a

>  <CanonSites short tag>  (95) 
nan

>  <Quatassemblies alias>  (95) 
nan

>  <HIPPO Compound ID>  (95) 
123083

>  <CrystalformSites short tag>  (95) 
nan

$$$$
BGYFBBKSPJEOFR-WBMJQRKESA-N
     RDKit          3D

 22 24  0  0  0  0  0  0  0  0999 V2000
    5.8370   15.6085   22.4993 N   0  0  0  0  0  0  0  0  0  0  0  0
    6.9963   16.4310   22.8403 C   0  0  0  0  0  0  0  0  0  0  0  0
    7.0579   17.5231   23.3275 O   0  0  0  0  0  0  0  0  0  0  0  0
    8.3908   15.6803   22.6091 C   0  0  2  0  0  0  0  0  0  0  0  0
    8.2927   14.6597   23.6351 N   0  0  0  0  0  0  0  0  0  0  0  0
    7.5090   13.4664   23.6991 C   0  0  0  0  0  0  0  0  0  0  0  0
    6.7913   12.9617   22.8879 O   0  0  0  0  0  0  0  0  0  0  0  0
    7.8045   12.8173   25.0458 C   0  0  2  0  0  0  0  0  0  0  0  0
    9.0922   12.0332   24.8790 C   0  0  0  0  0  0  0  0  0  0  0  0
    8.9122   10.7253   24.1382 C   0  0  0  0  0  0  0  0  0  0  0  0
    7.8122    9.5888   25.0045 S   0  0  0  0  0  0  0  0  0  0  0  0
    6.6466   10.6740   25.7906 C   0  0  0  0  0  0  0  0  0  0  0  0
    5.6582   10.0620   26.5745 C   0  0  0  0  0  0  0  0  0  0  0  0
    4.7151   10.8164   27.2697 C   0  0  0  0  0  0  0  0  0  0  0  0
    4.7192   12.1982   27.1529 C   0  0  0  0  0  0  0  0  0  0  0  0
    5.6930   12.8202   26.3759 C   0  0  0  0  0  0  0  0  0  0  0  0
    6.6850   12.0687   25.7138 C   0  0  0  0  0  0  0  0  0  0  0  0
    9.6178   16.5652   22.9316 C   0  0  0  0  0  0  0  0  0  0  0  0
   10.9097   15.9348   22.3987 C   0  0  0  0  0  0  0  0  0  0  0  0
   10.8728   15.8169   20.8752 C   0  0  0  0  0  0  0  0  0  0  0  0
    9.5081   15.7807   20.3611 N   0  0  0  0  0  0  0  0  0  0  0  0
    8.6236   15.0197   21.2306 C   0  0  0  0  0  0  0  0  0  0  0  0
  1  2  1  0
  2  3  2  0
  2  4  1  0
  4  5  1  1
  5  6  1  0
  6  7  2  0
  8  6  1  6
  8  9  1  0
  9 10  1  0
 10 11  1  0
 11 12  1  0
 12 13  2  0
 13 14  1  0
 14 15  2  0
 15 16  1  0
 16 17  2  0
  4 18  1  0
 18 19  1  0
 19 20  1  0
 20 21  1  0
 21 22  1  0
 22  4  1  0
 17  8  1  0
 17 12  1  0
M  END
>  <alias>  (96) 
None

>  <Experiment code>  (96) 
nan

>  <CrystalformSites upload name>  (96) 
nan

>  <inchikey>  (96) 
BGYFBBKSPJEOFR-WBMJQRKESA-N

>  <Crystalforms upload name>  (96) 
nan

>  <Quatassemblies upload name>  (96) 
nan

>  <ConformerSites alias>  (96) 
nan

>  <ConformerSites short tag>  (96) 
nan

>  <Crystalforms short tag>  (96) 
nan

>  <Centroid res>  (96) 
nan

>  <Quatassemblies short tag>  (96) 
nan

>  <observation_longname>  (96) 
nan

>  <name>  (96) 
BGYFBBKSPJEOFR-WBMJQRKESA-N

>  <CanonSites upload name>  (96) 
nan

>  <tags>  (96) 
[]

>  <energy_score>  (96) 
-134.784476

>  <original SMILES>  (96) 
NC(=O)[C@]1(NC(=O)[C@@H]2CCSc3ccccc32)CCCNC1

>  <ref_mols>  (96) 
A4386a

>  <Pose>  (96) 
nan

>  <distance_score>  (96) 
1.582966

>  <ConformerSites upload name>  (96) 
nan

>  <HIPPO Pose ID>  (96) 
209007

>  <Crystalforms alias>  (96) 
nan

>  <original ID>  (96) 
BGYFBBKSPJEOFR-WBMJQRKESA-N

>  <CanonSites alias>  (96) 
nan

>  <CrystalformSites alias>  (96) 
nan

>  <ref_pdb>  (96) 
A4386a

>  <CanonSites short tag>  (96) 
nan

>  <Quatassemblies alias>  (96) 
nan

>  <HIPPO Compound ID>  (96) 
123083

>  <CrystalformSites short tag>  (96) 
nan

$$$$
BGYFBBKSPJEOFR-MLGOLLRUSA-N
     RDKit          3D

 22 24  0  0  0  0  0  0  0  0999 V2000
    7.9833   17.7633   21.9054 N   0  0  0  0  0  0  0  0  0  0  0  0
    8.0828   16.4475   22.5219 C   0  0  0  0  0  0  0  0  0  0  0  0
    8.8907   15.5681   22.3634 O   0  0  0  0  0  0  0  0  0  0  0  0
    6.8887   16.0920   23.5420 C   0  0  1  0  0  0  0  0  0  0  0  0
    7.2362   14.7724   24.1075 N   0  0  0  0  0  0  0  0  0  0  0  0
    8.2627   14.3847   25.0336 C   0  0  0  0  0  0  0  0  0  0  0  0
    9.0528   15.0454   25.6493 O   0  0  0  0  0  0  0  0  0  0  0  0
    8.3767   12.8459   25.1297 C   0  0  2  0  0  0  0  0  0  0  0  0
    8.6488   12.2488   23.7441 C   0  0  0  0  0  0  0  0  0  0  0  0
    9.1445   10.8214   23.8291 C   0  0  0  0  0  0  0  0  0  0  0  0
    8.0132    9.6963   24.6793 S   0  0  0  0  0  0  0  0  0  0  0  0
    7.0246   10.7734   25.6958 C   0  0  0  0  0  0  0  0  0  0  0  0
    5.9894   10.1468   26.4081 C   0  0  0  0  0  0  0  0  0  0  0  0
    5.1835   10.8621   27.2891 C   0  0  0  0  0  0  0  0  0  0  0  0
    5.4073   12.2183   27.4711 C   0  0  0  0  0  0  0  0  0  0  0  0
    6.4298   12.8545   26.7663 C   0  0  0  0  0  0  0  0  0  0  0  0
    7.2370   12.1521   25.8505 C   0  0  0  0  0  0  0  0  0  0  0  0
    6.6549   17.0908   24.6853 C   0  0  0  0  0  0  0  0  0  0  0  0
    5.2056   17.1115   25.1878 C   0  0  0  0  0  0  0  0  0  0  0  0
    4.4324   15.8267   24.9025 C   0  0  0  0  0  0  0  0  0  0  0  0
    4.4579   15.3986   23.5078 N   0  0  0  0  0  0  0  0  0  0  0  0
    5.5838   15.9250   22.7271 C   0  0  0  0  0  0  0  0  0  0  0  0
  1  2  1  0
  2  3  2  0
  2  4  1  0
  4  5  1  1
  5  6  1  0
  6  7  2  0
  8  6  1  6
  8  9  1  0
  9 10  1  0
 10 11  1  0
 11 12  1  0
 12 13  2  0
 13 14  1  0
 14 15  2  0
 15 16  1  0
 16 17  2  0
  4 18  1  0
 18 19  1  0
 19 20  1  0
 20 21  1  0
 21 22  1  0
 22  4  1  0
 17  8  1  0
 17 12  1  0
M  END
>  <alias>  (97) 
None

>  <Experiment code>  (97) 
nan

>  <CrystalformSites upload name>  (97) 
nan

>  <inchikey>  (97) 
BGYFBBKSPJEOFR-MLGOLLRUSA-N

>  <Crystalforms upload name>  (97) 
nan

>  <Quatassemblies upload name>  (97) 
nan

>  <ConformerSites alias>  (97) 
nan

>  <ConformerSites short tag>  (97) 
nan

>  <Crystalforms short tag>  (97) 
nan

>  <Centroid res>  (97) 
nan

>  <Quatassemblies short tag>  (97) 
nan

>  <observation_longname>  (97) 
nan

>  <name>  (97) 
BGYFBBKSPJEOFR-MLGOLLRUSA-N

>  <CanonSites upload name>  (97) 
nan

>  <tags>  (97) 
[]

>  <energy_score>  (97) 
30.095512

>  <original SMILES>  (97) 
NC(=O)[C@@]1(NC(=O)[C@@H]2CCSc3ccccc32)CCCNC1

>  <ref_mols>  (97) 
A4386a

>  <Pose>  (97) 
nan

>  <distance_score>  (97) 
1.929336

>  <ConformerSites upload name>  (97) 
nan

>  <HIPPO Pose ID>  (97) 
209008

>  <Crystalforms alias>  (97) 
nan

>  <original ID>  (97) 
BGYFBBKSPJEOFR-MLGOLLRUSA-N

>  <CanonSites alias>  (97) 
nan

>  <CrystalformSites alias>  (97) 
nan

>  <ref_pdb>  (97) 
A4386a

>  <CanonSites short tag>  (97) 
nan

>  <Quatassemblies alias>  (97) 
nan

>  <HIPPO Compound ID>  (97) 
123083

>  <CrystalformSites short tag>  (97) 
nan

$$$$
XOEQMYWHIQUCEZ-MBNYWOFBSA-N
     RDKit          3D

 22 25  0  0  0  0  0  0  0  0999 V2000
   10.5610   16.1371   19.0927 C   0  0  0  0  0  0  0  0  0  0  0  0
   10.7275   16.2105   20.5232 N   0  0  0  0  0  0  0  0  0  0  0  0
   10.0710   17.1578   21.3292 C   0  0  0  0  0  0  0  0  0  0  0  0
    9.4805   18.1489   20.9526 O   0  0  0  0  0  0  0  0  0  0  0  0
   10.0814   16.5628   22.7460 C   0  0  2  0  0  0  0  0  0  0  0  0
   11.2247   15.5685   22.6315 C   0  0  0  0  0  0  0  0  0  0  0  0
   10.7668   15.0085   21.3040 C   0  0  1  0  0  0  0  0  0  0  0  0
    9.2922   14.5412   21.4652 C   0  0  0  0  0  0  0  0  0  0  0  0
    8.8812   14.1985   22.8358 N   0  0  0  0  0  0  0  0  0  0  0  0
    7.6884   13.5754   23.3252 C   0  0  0  0  0  0  0  0  0  0  0  0
    6.6836   13.2568   22.7510 O   0  0  0  0  0  0  0  0  0  0  0  0
    7.9457   13.2494   24.8102 C   0  0  2  0  0  0  0  0  0  0  0  0
    9.2137   12.3837   24.8981 C   0  0  0  0  0  0  0  0  0  0  0  0
    9.0437   11.0477   24.1890 C   0  0  0  0  0  0  0  0  0  0  0  0
    7.8390    9.9906   25.0160 S   0  0  0  0  0  0  0  0  0  0  0  0
    6.7190   11.1811   25.7244 C   0  0  0  0  0  0  0  0  0  0  0  0
    5.7035   10.6406   26.5299 C   0  0  0  0  0  0  0  0  0  0  0  0
    4.7719   11.4664   27.1535 C   0  0  0  0  0  0  0  0  0  0  0  0
    4.8318   12.8407   26.9594 C   0  0  0  0  0  0  0  0  0  0  0  0
    5.8396   13.3910   26.1669 C   0  0  0  0  0  0  0  0  0  0  0  0
    6.8105   12.5752   25.5587 C   0  0  0  0  0  0  0  0  0  0  0  0
    8.7647   15.7552   22.9455 C   0  0  0  0  0  0  0  0  0  0  0  0
  1  2  1  0
  2  3  1  0
  3  4  2  0
  3  5  1  0
  5  6  1  0
  6  7  1  0
  7  8  1  1
  8  9  1  0
  9 10  1  0
 10 11  2  0
 12 10  1  6
 12 13  1  0
 13 14  1  0
 14 15  1  0
 15 16  1  0
 16 17  2  0
 17 18  1  0
 18 19  2  0
 19 20  1  0
 20 21  2  0
  9 22  1  0
  7  2  1  0
 21 12  1  0
  5 22  1  6
 21 16  1  0
M  END
>  <alias>  (98) 
None

>  <Experiment code>  (98) 
nan

>  <CrystalformSites upload name>  (98) 
nan

>  <inchikey>  (98) 
XOEQMYWHIQUCEZ-MBNYWOFBSA-N

>  <Crystalforms upload name>  (98) 
nan

>  <Quatassemblies upload name>  (98) 
nan

>  <ConformerSites alias>  (98) 
nan

>  <ConformerSites short tag>  (98) 
nan

>  <Crystalforms short tag>  (98) 
nan

>  <Centroid res>  (98) 
nan

>  <Quatassemblies short tag>  (98) 
nan

>  <observation_longname>  (98) 
nan

>  <name>  (98) 
XOEQMYWHIQUCEZ-MBNYWOFBSA-N

>  <CanonSites upload name>  (98) 
nan

>  <tags>  (98) 
[]

>  <energy_score>  (98) 
41.035826

>  <original SMILES>  (98) 
CN1C(=O)[C@@H]2C[C@H]1CN(C(=O)[C@@H]1CCSc3ccccc31)C2

>  <ref_mols>  (98) 
A4386a

>  <Pose>  (98) 
nan

>  <distance_score>  (98) 
1.467503

>  <ConformerSites upload name>  (98) 
nan

>  <HIPPO Pose ID>  (98) 
209050

>  <Crystalforms alias>  (98) 
nan

>  <original ID>  (98) 
XOEQMYWHIQUCEZ-MBNYWOFBSA-N

>  <CanonSites alias>  (98) 
nan

>  <CrystalformSites alias>  (98) 
nan

>  <ref_pdb>  (98) 
A4386a

>  <CanonSites short tag>  (98) 
nan

>  <Quatassemblies alias>  (98) 
nan

>  <HIPPO Compound ID>  (98) 
123099

>  <CrystalformSites short tag>  (98) 
nan

$$$$
XOEQMYWHIQUCEZ-MBNYWOFBSA-N
     RDKit          3D

 22 25  0  0  0  0  0  0  0  0999 V2000
   10.5629   16.0873   18.9354 C   0  0  0  0  0  0  0  0  0  0  0  0
   10.6813   16.2346   20.3614 N   0  0  0  0  0  0  0  0  0  0  0  0
   10.0215   17.2362   21.0935 C   0  0  0  0  0  0  0  0  0  0  0  0
    9.4556   18.2198   20.6656 O   0  0  0  0  0  0  0  0  0  0  0  0
    9.9864   16.7193   22.5266 C   0  0  2  0  0  0  0  0  0  0  0  0
   11.1270   15.7143   22.5019 C   0  0  0  0  0  0  0  0  0  0  0  0
   10.6961   15.0755   21.2063 C   0  0  1  0  0  0  0  0  0  0  0  0
    9.2194   14.6137   21.3710 C   0  0  0  0  0  0  0  0  0  0  0  0
    8.7448   14.4325   22.7588 N   0  0  0  0  0  0  0  0  0  0  0  0
    7.5318   13.8753   23.2630 C   0  0  0  0  0  0  0  0  0  0  0  0
    6.5495   13.4943   22.6864 O   0  0  0  0  0  0  0  0  0  0  0  0
    7.7123   13.7177   24.7988 C   0  0  2  0  0  0  0  0  0  0  0  0
    9.1927   13.6009   25.2073 C   0  0  0  0  0  0  0  0  0  0  0  0
    9.9449   12.4860   24.4737 C   0  0  0  0  0  0  0  0  0  0  0  0
    9.0266   10.9361   24.1731 S   0  0  0  0  0  0  0  0  0  0  0  0
    7.5542   11.2041   25.1356 C   0  0  0  0  0  0  0  0  0  0  0  0
    6.9185   10.0818   25.6772 C   0  0  0  0  0  0  0  0  0  0  0  0
    5.7959   10.2249   26.4914 C   0  0  0  0  0  0  0  0  0  0  0  0
    5.2892   11.4955   26.7496 C   0  0  0  0  0  0  0  0  0  0  0  0
    5.8951   12.6193   26.1840 C   0  0  0  0  0  0  0  0  0  0  0  0
    7.0317   12.4851   25.3716 C   0  0  0  0  0  0  0  0  0  0  0  0
    8.6362   15.9721   22.6847 C   0  0  0  0  0  0  0  0  0  0  0  0
  1  2  1  0
  2  3  1  0
  3  4  2  0
  3  5  1  0
  5  6  1  0
  6  7  1  0
  7  8  1  1
  8  9  1  0
  9 10  1  0
 10 11  2  0
 12 10  1  6
 12 13  1  0
 13 14  1  0
 14 15  1  0
 15 16  1  0
 16 17  2  0
 17 18  1  0
 18 19  2  0
 19 20  1  0
 20 21  2  0
  9 22  1  0
  7  2  1  0
 21 12  1  0
  5 22  1  6
 21 16  1  0
M  END
>  <alias>  (99) 
None

>  <Experiment code>  (99) 
nan

>  <CrystalformSites upload name>  (99) 
nan

>  <inchikey>  (99) 
XOEQMYWHIQUCEZ-MBNYWOFBSA-N

>  <Crystalforms upload name>  (99) 
nan

>  <Quatassemblies upload name>  (99) 
nan

>  <ConformerSites alias>  (99) 
nan

>  <ConformerSites short tag>  (99) 
nan

>  <Crystalforms short tag>  (99) 
nan

>  <Centroid res>  (99) 
nan

>  <Quatassemblies short tag>  (99) 
nan

>  <observation_longname>  (99) 
nan

>  <name>  (99) 
XOEQMYWHIQUCEZ-MBNYWOFBSA-N

>  <CanonSites upload name>  (99) 
nan

>  <tags>  (99) 
[]

>  <energy_score>  (99) 
11.45245

>  <original SMILES>  (99) 
CN1C(=O)[C@@H]2C[C@H]1CN(C(=O)[C@@H]1CCSc3ccccc31)C2

>  <ref_mols>  (99) 
A4386a

>  <Pose>  (99) 
nan

>  <distance_score>  (99) 
1.289145

>  <ConformerSites upload name>  (99) 
nan

>  <HIPPO Pose ID>  (99) 
209051

>  <Crystalforms alias>  (99) 
nan

>  <original ID>  (99) 
XOEQMYWHIQUCEZ-MBNYWOFBSA-N

>  <CanonSites alias>  (99) 
nan

>  <CrystalformSites alias>  (99) 
nan

>  <ref_pdb>  (99) 
A4386a

>  <CanonSites short tag>  (99) 
nan

>  <Quatassemblies alias>  (99) 
nan

>  <HIPPO Compound ID>  (99) 
123099

>  <CrystalformSites short tag>  (99) 
nan

$$$$
XOEQMYWHIQUCEZ-OUCADQQQSA-N
     RDKit          3D

 22 25  0  0  0  0  0  0  0  0999 V2000
   11.3479   14.9415   20.3135 C   0  0  0  0  0  0  0  0  0  0  0  0
   10.3599   15.1123   21.3544 N   0  0  0  0  0  0  0  0  0  0  0  0
   10.8251   15.3985   22.6517 C   0  0  0  0  0  0  0  0  0  0  0  0
   11.7647   14.9085   23.2535 O   0  0  0  0  0  0  0  0  0  0  0  0
    9.9324   16.5091   23.1628 C   0  0  1  0  0  0  0  0  0  0  0  0
    9.6238   17.2186   21.8569 C   0  0  0  0  0  0  0  0  0  0  0  0
    9.2190   15.9731   21.1205 C   0  0  2  0  0  0  0  0  0  0  0  0
    7.9468   15.4419   21.8708 C   0  0  0  0  0  0  0  0  0  0  0  0
    8.0889   14.6392   23.1622 N   0  0  0  0  0  0  0  0  0  0  0  0
    7.0950   14.1091   24.0464 C   0  0  0  0  0  0  0  0  0  0  0  0
    5.9003   14.2389   24.0443 O   0  0  0  0  0  0  0  0  0  0  0  0
    7.7935   13.3285   25.2100 C   0  0  2  0  0  0  0  0  0  0  0  0
    9.1085   12.6500   24.8122 C   0  0  0  0  0  0  0  0  0  0  0  0
    8.8714   11.4795   23.8844 C   0  0  0  0  0  0  0  0  0  0  0  0
    8.0849   10.1056   24.7474 S   0  0  0  0  0  0  0  0  0  0  0  0
    6.8980   10.9690   25.7550 C   0  0  0  0  0  0  0  0  0  0  0  0
    5.9933   10.1572   26.4568 C   0  0  0  0  0  0  0  0  0  0  0  0
    5.0599   10.7049   27.3331 C   0  0  0  0  0  0  0  0  0  0  0  0
    5.0077   12.0805   27.5052 C   0  0  0  0  0  0  0  0  0  0  0  0
    5.8936   12.9002   26.8065 C   0  0  0  0  0  0  0  0  0  0  0  0
    6.8548   12.3614   25.9269 C   0  0  0  0  0  0  0  0  0  0  0  0
    8.5908   15.9762   23.6843 C   0  0  0  0  0  0  0  0  0  0  0  0
  1  2  1  0
  2  3  1  0
  3  4  2  0
  3  5  1  0
  5  6  1  0
  6  7  1  0
  7  8  1  1
  8  9  1  0
  9 10  1  0
 10 11  2  0
 12 10  1  6
 12 13  1  0
 13 14  1  0
 14 15  1  0
 15 16  1  0
 16 17  2  0
 17 18  1  0
 18 19  2  0
 19 20  1  0
 20 21  2  0
  9 22  1  0
  7  2  1  0
 21 12  1  0
  5 22  1  6
 21 16  1  0
M  END
>  <alias>  (100) 
None

>  <Experiment code>  (100) 
nan

>  <CrystalformSites upload name>  (100) 
nan

>  <inchikey>  (100) 
XOEQMYWHIQUCEZ-OUCADQQQSA-N

>  <Crystalforms upload name>  (100) 
nan

>  <Quatassemblies upload name>  (100) 
nan

>  <ConformerSites alias>  (100) 
nan

>  <ConformerSites short tag>  (100) 
nan

>  <Crystalforms short tag>  (100) 
nan

>  <Centroid res>  (100) 
nan

>  <Quatassemblies short tag>  (100) 
nan

>  <observation_longname>  (100) 
nan

>  <name>  (100) 
XOEQMYWHIQUCEZ-OUCADQQQSA-N

>  <CanonSites upload name>  (100) 
nan

>  <tags>  (100) 
[]

>  <energy_score>  (100) 
-23.521699

>  <original SMILES>  (100) 
CN1C(=O)[C@H]2C[C@@H]1CN(C(=O)[C@@H]1CCSc3ccccc31)C2

>  <ref_mols>  (100) 
A4386a

>  <Pose>  (100) 
nan

>  <distance_score>  (100) 
1.735778

>  <ConformerSites upload name>  (100) 
nan

>  <HIPPO Pose ID>  (100) 
209052

>  <Crystalforms alias>  (100) 
nan

>  <original ID>  (100) 
XOEQMYWHIQUCEZ-OUCADQQQSA-N

>  <CanonSites alias>  (100) 
nan

>  <CrystalformSites alias>  (100) 
nan

>  <ref_pdb>  (100) 
A4386a

>  <CanonSites short tag>  (100) 
nan

>  <Quatassemblies alias>  (100) 
nan

>  <HIPPO Compound ID>  (100) 
123099

>  <CrystalformSites short tag>  (100) 
nan

$$$$
CFFYEHHIEOEUPL-HZSPNIEDSA-N
     RDKit          3D

 22 25  0  0  0  0  0  0  0  0999 V2000
   11.3405   16.1788   19.9198 O   0  0  0  0  0  0  0  0  0  0  0  0
   10.4598   15.8035   20.6644 C   0  0  0  0  0  0  0  0  0  0  0  0
    9.1287   15.7491   20.3524 N   0  0  0  0  0  0  0  0  0  0  0  0
    8.3441   15.1652   21.4043 C   0  0  0  0  0  0  0  0  0  0  0  0
    9.1992   15.4002   22.6563 C   0  0  2  0  0  0  0  0  0  0  0  0
   10.6014   15.2446   22.0435 C   0  0  2  0  0  0  0  0  0  0  0  0
   11.5176   15.9664   22.9702 C   0  0  0  0  0  0  0  0  0  0  0  0
   11.2027   15.4189   24.3515 C   0  0  0  0  0  0  0  0  0  0  0  0
    9.6891   15.2812   24.5733 C   0  0  0  0  0  0  0  0  0  0  0  0
    8.9522   14.3092   23.6642 N   0  0  0  0  0  0  0  0  0  0  0  0
    7.7463   13.8736   24.2881 C   0  0  0  0  0  0  0  0  0  0  0  0
    6.6366   14.3239   24.2369 O   0  0  0  0  0  0  0  0  0  0  0  0
    8.0980   12.5468   25.0286 C   0  0  2  0  0  0  0  0  0  0  0  0
    8.4737   11.5790   23.8936 C   0  0  0  0  0  0  0  0  0  0  0  0
    8.7363   10.1485   24.2668 C   0  0  0  0  0  0  0  0  0  0  0  0
    7.3755    9.3856   25.1421 S   0  0  0  0  0  0  0  0  0  0  0  0
    6.6455   10.7092   26.0578 C   0  0  0  0  0  0  0  0  0  0  0  0
    5.6354   10.3149   26.9540 C   0  0  0  0  0  0  0  0  0  0  0  0
    5.0111   11.2371   27.7868 C   0  0  0  0  0  0  0  0  0  0  0  0
    5.3943   12.5677   27.7342 C   0  0  0  0  0  0  0  0  0  0  0  0
    6.3890   12.9690   26.8419 C   0  0  0  0  0  0  0  0  0  0  0  0
    7.0133   12.0551   25.9673 C   0  0  0  0  0  0  0  0  0  0  0  0
  1  2  2  0
  2  3  1  0
  3  4  1  0
  5  4  1  6
  5  6  1  0
  6  7  1  1
  7  8  1  0
  8  9  1  0
  9 10  1  0
 10 11  1  0
 11 12  2  0
 13 11  1  6
 13 14  1  0
 14 15  1  0
 15 16  1  0
 16 17  1  0
 17 18  2  0
 18 19  1  0
 19 20  2  0
 20 21  1  0
 21 22  2  0
  6  2  1  0
 22 13  1  0
 10  5  1  0
 22 17  1  0
M  END
>  <alias>  (101) 
None

>  <Experiment code>  (101) 
nan

>  <CrystalformSites upload name>  (101) 
nan

>  <inchikey>  (101) 
CFFYEHHIEOEUPL-HZSPNIEDSA-N

>  <Crystalforms upload name>  (101) 
nan

>  <Quatassemblies upload name>  (101) 
nan

>  <ConformerSites alias>  (101) 
nan

>  <ConformerSites short tag>  (101) 
nan

>  <Crystalforms short tag>  (101) 
nan

>  <Centroid res>  (101) 
nan

>  <Quatassemblies short tag>  (101) 
nan

>  <observation_longname>  (101) 
nan

>  <name>  (101) 
CFFYEHHIEOEUPL-HZSPNIEDSA-N

>  <CanonSites upload name>  (101) 
nan

>  <tags>  (101) 
[]

>  <energy_score>  (101) 
-0.96088

>  <original SMILES>  (101) 
O=C1NC[C@@H]2[C@@H]1CCCN2C(=O)[C@@H]1CCSc2ccccc21

>  <ref_mols>  (101) 
A4386a

>  <Pose>  (101) 
nan

>  <distance_score>  (101) 
1.532495

>  <ConformerSites upload name>  (101) 
nan

>  <HIPPO Pose ID>  (101) 
209081

>  <Crystalforms alias>  (101) 
nan

>  <original ID>  (101) 
CFFYEHHIEOEUPL-HZSPNIEDSA-N

>  <CanonSites alias>  (101) 
nan

>  <CrystalformSites alias>  (101) 
nan

>  <ref_pdb>  (101) 
A4386a

>  <CanonSites short tag>  (101) 
nan

>  <Quatassemblies alias>  (101) 
nan

>  <HIPPO Compound ID>  (101) 
123105

>  <CrystalformSites short tag>  (101) 
nan

$$$$
AWQKJROYGCNUQN-SGMGOOAPSA-N
     RDKit          3D

 22 24  0  0  0  0  0  0  0  0999 V2000
    7.8155   16.0739   24.6541 C   0  0  0  0  0  0  0  0  0  0  0  0
    8.5772   15.8161   23.3292 C   0  0  1  0  0  0  0  0  0  0  0  0
   10.0278   16.3121   23.5715 C   0  0  0  0  0  0  0  0  0  0  0  0
   10.6464   16.6449   22.2339 C   0  0  0  0  0  0  0  0  0  0  0  0
   10.4140   15.4431   21.3440 C   0  0  2  0  0  0  0  0  0  0  0  0
   10.6010   15.7760   19.8557 C   0  0  0  0  0  0  0  0  0  0  0  0
   10.9709   14.5906   19.1324 N   0  0  0  0  0  0  0  0  0  0  0  0
   10.4659   16.9031   19.4846 O   0  0  0  0  0  0  0  0  0  0  0  0
    8.9931   14.9198   21.5732 C   0  0  0  0  0  0  0  0  0  0  0  0
    8.7086   14.2987   22.9117 N   0  0  0  0  0  0  0  0  0  0  0  0
    7.5726   13.5523   23.3748 C   0  0  0  0  0  0  0  0  0  0  0  0
    6.5261   13.3139   22.8382 O   0  0  0  0  0  0  0  0  0  0  0  0
    7.9507   12.9482   24.7521 C   0  0  2  0  0  0  0  0  0  0  0  0
    9.2300   12.1219   24.6484 C   0  0  0  0  0  0  0  0  0  0  0  0
    9.0237   10.7838   23.9761 C   0  0  0  0  0  0  0  0  0  0  0  0
    7.9334    9.6972   24.9071 S   0  0  0  0  0  0  0  0  0  0  0  0
    6.7996   10.8389   25.6575 C   0  0  0  0  0  0  0  0  0  0  0  0
    5.8188   10.2597   26.4798 C   0  0  0  0  0  0  0  0  0  0  0  0
    4.8932   11.0462   27.1598 C   0  0  0  0  0  0  0  0  0  0  0  0
    4.9193   12.4237   27.0015 C   0  0  0  0  0  0  0  0  0  0  0  0
    5.8872   13.0102   26.1862 C   0  0  0  0  0  0  0  0  0  0  0  0
    6.8531   12.2326   25.5173 C   0  0  0  0  0  0  0  0  0  0  0  0
  2  1  1  1
  2  3  1  0
  3  4  1  0
  4  5  1  0
  5  6  1  6
  6  7  1  0
  6  8  2  0
  5  9  1  0
  9 10  1  0
 10 11  1  0
 11 12  2  0
 13 11  1  6
 13 14  1  0
 14 15  1  0
 15 16  1  0
 16 17  1  0
 17 18  2  0
 18 19  1  0
 19 20  2  0
 20 21  1  0
 21 22  2  0
 10  2  1  0
 22 13  1  0
 22 17  1  0
M  END
>  <alias>  (102) 
None

>  <Experiment code>  (102) 
nan

>  <CrystalformSites upload name>  (102) 
nan

>  <inchikey>  (102) 
AWQKJROYGCNUQN-SGMGOOAPSA-N

>  <Crystalforms upload name>  (102) 
nan

>  <Quatassemblies upload name>  (102) 
nan

>  <ConformerSites alias>  (102) 
nan

>  <ConformerSites short tag>  (102) 
nan

>  <Crystalforms short tag>  (102) 
nan

>  <Centroid res>  (102) 
nan

>  <Quatassemblies short tag>  (102) 
nan

>  <observation_longname>  (102) 
nan

>  <name>  (102) 
AWQKJROYGCNUQN-SGMGOOAPSA-N

>  <CanonSites upload name>  (102) 
nan

>  <tags>  (102) 
[]

>  <energy_score>  (102) 
141.637817

>  <original SMILES>  (102) 
C[C@H]1CC[C@H](C(N)=O)CN1C(=O)[C@@H]1CCSc2ccccc21

>  <ref_mols>  (102) 
A4386a

>  <Pose>  (102) 
nan

>  <distance_score>  (102) 
1.233218

>  <ConformerSites upload name>  (102) 
nan

>  <HIPPO Pose ID>  (102) 
209118

>  <Crystalforms alias>  (102) 
nan

>  <original ID>  (102) 
AWQKJROYGCNUQN-SGMGOOAPSA-N

>  <CanonSites alias>  (102) 
nan

>  <CrystalformSites alias>  (102) 
nan

>  <ref_pdb>  (102) 
A4386a

>  <CanonSites short tag>  (102) 
nan

>  <Quatassemblies alias>  (102) 
nan

>  <HIPPO Compound ID>  (102) 
123119

>  <CrystalformSites short tag>  (102) 
nan

$$$$
AWQKJROYGCNUQN-SGMGOOAPSA-N
     RDKit          3D

 22 24  0  0  0  0  0  0  0  0999 V2000
    9.3767   15.3395   25.4395 C   0  0  0  0  0  0  0  0  0  0  0  0
    9.5107   15.4858   23.8994 C   0  0  1  0  0  0  0  0  0  0  0  0
   11.0256   15.7402   23.6949 C   0  0  0  0  0  0  0  0  0  0  0  0
   11.3251   16.2154   22.2889 C   0  0  0  0  0  0  0  0  0  0  0  0
   10.5551   15.3070   21.3609 C   0  0  2  0  0  0  0  0  0  0  0  0
   10.5708   15.8079   19.9109 C   0  0  0  0  0  0  0  0  0  0  0  0
   11.8653   15.5722   19.3053 N   0  0  0  0  0  0  0  0  0  0  0  0
    9.5727   16.2855   19.4546 O   0  0  0  0  0  0  0  0  0  0  0  0
    9.1320   15.2077   21.9309 C   0  0  0  0  0  0  0  0  0  0  0  0
    9.0168   14.2280   23.0764 N   0  0  0  0  0  0  0  0  0  0  0  0
    7.8615   13.6484   23.6986 C   0  0  0  0  0  0  0  0  0  0  0  0
    6.6923   13.8645   23.5270 O   0  0  0  0  0  0  0  0  0  0  0  0
    8.3294   12.4951   24.6577 C   0  0  2  0  0  0  0  0  0  0  0  0
    8.8523   11.4567   23.6476 C   0  0  0  0  0  0  0  0  0  0  0  0
    9.1363   10.0522   24.0866 C   0  0  0  0  0  0  0  0  0  0  0  0
    7.7568    9.2898   24.9270 S   0  0  0  0  0  0  0  0  0  0  0  0
    6.9456   10.6281   25.7506 C   0  0  0  0  0  0  0  0  0  0  0  0
    5.9143   10.2318   26.6245 C   0  0  0  0  0  0  0  0  0  0  0  0
    5.1948   11.1608   27.3674 C   0  0  0  0  0  0  0  0  0  0  0  0
    5.4917   12.5055   27.2341 C   0  0  0  0  0  0  0  0  0  0  0  0
    6.5007   12.9090   26.3579 C   0  0  0  0  0  0  0  0  0  0  0  0
    7.2402   11.9854   25.5887 C   0  0  0  0  0  0  0  0  0  0  0  0
  2  1  1  1
  2  3  1  0
  3  4  1  0
  4  5  1  0
  5  6  1  6
  6  7  1  0
  6  8  2  0
  5  9  1  0
  9 10  1  0
 10 11  1  0
 11 12  2  0
 13 11  1  6
 13 14  1  0
 14 15  1  0
 15 16  1  0
 16 17  1  0
 17 18  2  0
 18 19  1  0
 19 20  2  0
 20 21  1  0
 21 22  2  0
 10  2  1  0
 22 13  1  0
 22 17  1  0
M  END
>  <alias>  (103) 
None

>  <Experiment code>  (103) 
nan

>  <CrystalformSites upload name>  (103) 
nan

>  <inchikey>  (103) 
AWQKJROYGCNUQN-SGMGOOAPSA-N

>  <Crystalforms upload name>  (103) 
nan

>  <Quatassemblies upload name>  (103) 
nan

>  <ConformerSites alias>  (103) 
nan

>  <ConformerSites short tag>  (103) 
nan

>  <Crystalforms short tag>  (103) 
nan

>  <Centroid res>  (103) 
nan

>  <Quatassemblies short tag>  (103) 
nan

>  <observation_longname>  (103) 
nan

>  <name>  (103) 
AWQKJROYGCNUQN-SGMGOOAPSA-N

>  <CanonSites upload name>  (103) 
nan

>  <tags>  (103) 
[]

>  <energy_score>  (103) 
57.978921

>  <original SMILES>  (103) 
C[C@H]1CC[C@H](C(N)=O)CN1C(=O)[C@@H]1CCSc2ccccc21

>  <ref_mols>  (103) 
A4386a

>  <Pose>  (103) 
nan

>  <distance_score>  (103) 
1.122224

>  <ConformerSites upload name>  (103) 
nan

>  <HIPPO Pose ID>  (103) 
209119

>  <Crystalforms alias>  (103) 
nan

>  <original ID>  (103) 
AWQKJROYGCNUQN-SGMGOOAPSA-N

>  <CanonSites alias>  (103) 
nan

>  <CrystalformSites alias>  (103) 
nan

>  <ref_pdb>  (103) 
A4386a

>  <CanonSites short tag>  (103) 
nan

>  <Quatassemblies alias>  (103) 
nan

>  <HIPPO Compound ID>  (103) 
123119

>  <CrystalformSites short tag>  (103) 
nan

$$$$
AWQKJROYGCNUQN-YRGRVCCFSA-N
     RDKit          3D

 22 24  0  0  0  0  0  0  0  0999 V2000
    7.9324   16.3940   23.6919 C   0  0  0  0  0  0  0  0  0  0  0  0
    9.1167   15.4077   23.5493 C   0  0  2  0  0  0  0  0  0  0  0  0
   10.5530   16.0015   23.5587 C   0  0  0  0  0  0  0  0  0  0  0  0
   11.2233   15.8529   22.2031 C   0  0  0  0  0  0  0  0  0  0  0  0
   10.1186   16.0004   21.1884 C   0  0  1  0  0  0  0  0  0  0  0  0
   10.5528   15.8932   19.7075 C   0  0  0  0  0  0  0  0  0  0  0  0
   11.1200   14.6184   19.3579 N   0  0  0  0  0  0  0  0  0  0  0  0
   10.4363   16.8974   19.0649 O   0  0  0  0  0  0  0  0  0  0  0  0
    8.9407   15.1097   21.5872 C   0  0  0  0  0  0  0  0  0  0  0  0
    8.9895   14.1240   22.7353 N   0  0  0  0  0  0  0  0  0  0  0  0
    7.9704   13.2908   23.2907 C   0  0  0  0  0  0  0  0  0  0  0  0
    6.7959   13.2275   23.0464 O   0  0  0  0  0  0  0  0  0  0  0  0
    8.6062   12.2975   24.3125 C   0  0  2  0  0  0  0  0  0  0  0  0
    9.1549   11.1850   23.4269 C   0  0  0  0  0  0  0  0  0  0  0  0
    9.4267    9.8307   24.0078 C   0  0  0  0  0  0  0  0  0  0  0  0
    7.9524    9.1597   24.7742 S   0  0  0  0  0  0  0  0  0  0  0  0
    7.2191   10.5537   25.5777 C   0  0  0  0  0  0  0  0  0  0  0  0
    6.1761   10.2601   26.4733 C   0  0  0  0  0  0  0  0  0  0  0  0
    5.5395   11.2654   27.1960 C   0  0  0  0  0  0  0  0  0  0  0  0
    5.9394   12.5820   27.0279 C   0  0  0  0  0  0  0  0  0  0  0  0
    6.9553   12.8865   26.1216 C   0  0  0  0  0  0  0  0  0  0  0  0
    7.5930   11.8811   25.3630 C   0  0  0  0  0  0  0  0  0  0  0  0
  2  1  1  6
  2  3  1  0
  3  4  1  0
  4  5  1  0
  5  6  1  6
  6  7  1  0
  6  8  2  0
  5  9  1  0
  9 10  1  0
 10 11  1  0
 11 12  2  0
 13 11  1  6
 13 14  1  0
 14 15  1  0
 15 16  1  0
 16 17  1  0
 17 18  2  0
 18 19  1  0
 19 20  2  0
 20 21  1  0
 21 22  2  0
 10  2  1  0
 22 13  1  0
 22 17  1  0
M  END
>  <alias>  (104) 
None

>  <Experiment code>  (104) 
nan

>  <CrystalformSites upload name>  (104) 
nan

>  <inchikey>  (104) 
AWQKJROYGCNUQN-YRGRVCCFSA-N

>  <Crystalforms upload name>  (104) 
nan

>  <Quatassemblies upload name>  (104) 
nan

>  <ConformerSites alias>  (104) 
nan

>  <ConformerSites short tag>  (104) 
nan

>  <Crystalforms short tag>  (104) 
nan

>  <Centroid res>  (104) 
nan

>  <Quatassemblies short tag>  (104) 
nan

>  <observation_longname>  (104) 
nan

>  <name>  (104) 
AWQKJROYGCNUQN-YRGRVCCFSA-N

>  <CanonSites upload name>  (104) 
nan

>  <tags>  (104) 
[]

>  <energy_score>  (104) 
73.451356

>  <original SMILES>  (104) 
C[C@@H]1CC[C@@H](C(N)=O)CN1C(=O)[C@@H]1CCSc2ccccc21

>  <ref_mols>  (104) 
A4386a

>  <Pose>  (104) 
nan

>  <distance_score>  (104) 
1.082625

>  <ConformerSites upload name>  (104) 
nan

>  <HIPPO Pose ID>  (104) 
209120

>  <Crystalforms alias>  (104) 
nan

>  <original ID>  (104) 
AWQKJROYGCNUQN-YRGRVCCFSA-N

>  <CanonSites alias>  (104) 
nan

>  <CrystalformSites alias>  (104) 
nan

>  <ref_pdb>  (104) 
A4386a

>  <CanonSites short tag>  (104) 
nan

>  <Quatassemblies alias>  (104) 
nan

>  <HIPPO Compound ID>  (104) 
123119

>  <CrystalformSites short tag>  (104) 
nan

$$$$
AWQKJROYGCNUQN-OUCADQQQSA-N
     RDKit          3D

 22 24  0  0  0  0  0  0  0  0999 V2000
   10.6826   14.7437   25.7704 C   0  0  0  0  0  0  0  0  0  0  0  0
   10.2793   15.3851   24.4187 C   0  0  1  0  0  0  0  0  0  0  0  0
   11.4397   15.0058   23.4504 C   0  0  0  0  0  0  0  0  0  0  0  0
   11.1227   15.4406   22.0337 C   0  0  0  0  0  0  0  0  0  0  0  0
   10.1769   16.6136   22.1637 C   0  0  1  0  0  0  0  0  0  0  0  0
    9.6728   17.1385   20.8147 C   0  0  0  0  0  0  0  0  0  0  0  0
    9.2319   18.5222   20.9110 N   0  0  0  0  0  0  0  0  0  0  0  0
    9.6702   16.3814   19.8846 O   0  0  0  0  0  0  0  0  0  0  0  0
    9.0045   16.1874   23.0753 C   0  0  0  0  0  0  0  0  0  0  0  0
    8.9400   14.8573   23.8086 N   0  0  0  0  0  0  0  0  0  0  0  0
    8.0626   14.4058   24.8514 C   0  0  0  0  0  0  0  0  0  0  0  0
    7.2189   14.9964   25.4687 O   0  0  0  0  0  0  0  0  0  0  0  0
    8.2649   12.8473   25.0611 C   0  0  2  0  0  0  0  0  0  0  0  0
    8.4838   12.1707   23.6961 C   0  0  0  0  0  0  0  0  0  0  0  0
    9.0650   10.7824   23.8180 C   0  0  0  0  0  0  0  0  0  0  0  0
    8.0059    9.6328   24.6959 S   0  0  0  0  0  0  0  0  0  0  0  0
    7.0017   10.7059   25.7035 C   0  0  0  0  0  0  0  0  0  0  0  0
    5.9955   10.0372   26.4259 C   0  0  0  0  0  0  0  0  0  0  0  0
    5.2038   10.7006   27.3535 C   0  0  0  0  0  0  0  0  0  0  0  0
    5.4232   12.0462   27.5789 C   0  0  0  0  0  0  0  0  0  0  0  0
    6.4084   12.7239   26.8542 C   0  0  0  0  0  0  0  0  0  0  0  0
    7.1858   12.0929   25.8606 C   0  0  0  0  0  0  0  0  0  0  0  0
  2  1  1  1
  2  3  1  0
  3  4  1  0
  4  5  1  0
  5  6  1  6
  6  7  1  0
  6  8  2  0
  5  9  1  0
  9 10  1  0
 10 11  1  0
 11 12  2  0
 13 11  1  6
 13 14  1  0
 14 15  1  0
 15 16  1  0
 16 17  1  0
 17 18  2  0
 18 19  1  0
 19 20  2  0
 20 21  1  0
 21 22  2  0
 10  2  1  0
 22 13  1  0
 22 17  1  0
M  END
>  <alias>  (105) 
None

>  <Experiment code>  (105) 
nan

>  <CrystalformSites upload name>  (105) 
nan

>  <inchikey>  (105) 
AWQKJROYGCNUQN-OUCADQQQSA-N

>  <Crystalforms upload name>  (105) 
nan

>  <Quatassemblies upload name>  (105) 
nan

>  <ConformerSites alias>  (105) 
nan

>  <ConformerSites short tag>  (105) 
nan

>  <Crystalforms short tag>  (105) 
nan

>  <Centroid res>  (105) 
nan

>  <Quatassemblies short tag>  (105) 
nan

>  <observation_longname>  (105) 
nan

>  <name>  (105) 
AWQKJROYGCNUQN-OUCADQQQSA-N

>  <CanonSites upload name>  (105) 
nan

>  <tags>  (105) 
[]

>  <energy_score>  (105) 
176.23026

>  <original SMILES>  (105) 
C[C@H]1CC[C@@H](C(N)=O)CN1C(=O)[C@@H]1CCSc2ccccc21

>  <ref_mols>  (105) 
A4386a

>  <Pose>  (105) 
nan

>  <distance_score>  (105) 
1.539145

>  <ConformerSites upload name>  (105) 
nan

>  <HIPPO Pose ID>  (105) 
209121

>  <Crystalforms alias>  (105) 
nan

>  <original ID>  (105) 
AWQKJROYGCNUQN-OUCADQQQSA-N

>  <CanonSites alias>  (105) 
nan

>  <CrystalformSites alias>  (105) 
nan

>  <ref_pdb>  (105) 
A4386a

>  <CanonSites short tag>  (105) 
nan

>  <Quatassemblies alias>  (105) 
nan

>  <HIPPO Compound ID>  (105) 
123119

>  <CrystalformSites short tag>  (105) 
nan

$$$$
AWQKJROYGCNUQN-MBNYWOFBSA-N
     RDKit          3D

 22 24  0  0  0  0  0  0  0  0999 V2000
    7.6338   16.6310   22.7969 C   0  0  0  0  0  0  0  0  0  0  0  0
    8.7682   15.6887   23.2689 C   0  0  2  0  0  0  0  0  0  0  0  0
   10.1913   16.2757   23.4206 C   0  0  0  0  0  0  0  0  0  0  0  0
   10.8241   16.5126   22.0711 C   0  0  0  0  0  0  0  0  0  0  0  0
   10.5483   15.2778   21.2440 C   0  0  2  0  0  0  0  0  0  0  0  0
   10.6997   15.6037   19.7542 C   0  0  0  0  0  0  0  0  0  0  0  0
   12.0775   15.5069   19.3377 N   0  0  0  0  0  0  0  0  0  0  0  0
    9.7155   15.8839   19.1332 O   0  0  0  0  0  0  0  0  0  0  0  0
    9.1131   14.8043   21.5210 C   0  0  0  0  0  0  0  0  0  0  0  0
    8.8128   14.2064   22.8623 N   0  0  0  0  0  0  0  0  0  0  0  0
    7.6417   13.5254   23.3437 C   0  0  0  0  0  0  0  0  0  0  0  0
    6.5767   13.3436   22.8223 O   0  0  0  0  0  0  0  0  0  0  0  0
    7.9792   13.0013   24.7553 C   0  0  2  0  0  0  0  0  0  0  0  0
    9.2557   12.1676   24.7291 C   0  0  0  0  0  0  0  0  0  0  0  0
    9.0632   10.8349   24.0351 C   0  0  0  0  0  0  0  0  0  0  0  0
    7.9356    9.7504   24.9289 S   0  0  0  0  0  0  0  0  0  0  0  0
    6.8004   10.9065   25.6622 C   0  0  0  0  0  0  0  0  0  0  0  0
    5.8059   10.3438   26.4783 C   0  0  0  0  0  0  0  0  0  0  0  0
    4.8760   11.1478   27.1328 C   0  0  0  0  0  0  0  0  0  0  0  0
    4.9110   12.5241   26.9541 C   0  0  0  0  0  0  0  0  0  0  0  0
    5.8941   13.0951   26.1466 C   0  0  0  0  0  0  0  0  0  0  0  0
    6.8660   12.2999   25.5095 C   0  0  0  0  0  0  0  0  0  0  0  0
  2  1  1  6
  2  3  1  0
  3  4  1  0
  4  5  1  0
  5  6  1  6
  6  7  1  0
  6  8  2  0
  5  9  1  0
  9 10  1  0
 10 11  1  0
 11 12  2  0
 13 11  1  6
 13 14  1  0
 14 15  1  0
 15 16  1  0
 16 17  1  0
 17 18  2  0
 18 19  1  0
 19 20  2  0
 20 21  1  0
 21 22  2  0
 10  2  1  0
 22 13  1  0
 22 17  1  0
M  END
>  <alias>  (106) 
None

>  <Experiment code>  (106) 
nan

>  <CrystalformSites upload name>  (106) 
nan

>  <inchikey>  (106) 
AWQKJROYGCNUQN-MBNYWOFBSA-N

>  <Crystalforms upload name>  (106) 
nan

>  <Quatassemblies upload name>  (106) 
nan

>  <ConformerSites alias>  (106) 
nan

>  <ConformerSites short tag>  (106) 
nan

>  <Crystalforms short tag>  (106) 
nan

>  <Centroid res>  (106) 
nan

>  <Quatassemblies short tag>  (106) 
nan

>  <observation_longname>  (106) 
nan

>  <name>  (106) 
AWQKJROYGCNUQN-MBNYWOFBSA-N

>  <CanonSites upload name>  (106) 
nan

>  <tags>  (106) 
[]

>  <energy_score>  (106) 
140.69414

>  <original SMILES>  (106) 
C[C@@H]1CC[C@H](C(N)=O)CN1C(=O)[C@@H]1CCSc2ccccc21

>  <ref_mols>  (106) 
A4386a

>  <Pose>  (106) 
nan

>  <distance_score>  (106) 
1.285309

>  <ConformerSites upload name>  (106) 
nan

>  <HIPPO Pose ID>  (106) 
209122

>  <Crystalforms alias>  (106) 
nan

>  <original ID>  (106) 
AWQKJROYGCNUQN-MBNYWOFBSA-N

>  <CanonSites alias>  (106) 
nan

>  <CrystalformSites alias>  (106) 
nan

>  <ref_pdb>  (106) 
A4386a

>  <CanonSites short tag>  (106) 
nan

>  <Quatassemblies alias>  (106) 
nan

>  <HIPPO Compound ID>  (106) 
123119

>  <CrystalformSites short tag>  (106) 
nan

$$$$
AWQKJROYGCNUQN-SGMGOOAPSA-N
     RDKit          3D

 22 24  0  0  0  0  0  0  0  0999 V2000
    9.3470   15.3320   25.4344 C   0  0  0  0  0  0  0  0  0  0  0  0
    9.4927   15.4789   23.8960 C   0  0  1  0  0  0  0  0  0  0  0  0
   11.0030   15.7772   23.7095 C   0  0  0  0  0  0  0  0  0  0  0  0
   11.3168   16.2385   22.3014 C   0  0  0  0  0  0  0  0  0  0  0  0
   10.5860   15.2983   21.3750 C   0  0  2  0  0  0  0  0  0  0  0  0
   10.6067   15.7711   19.9160 C   0  0  0  0  0  0  0  0  0  0  0  0
   11.9171   15.5695   19.3322 N   0  0  0  0  0  0  0  0  0  0  0  0
    9.5936   16.1862   19.4319 O   0  0  0  0  0  0  0  0  0  0  0  0
    9.1567   15.1783   21.9237 C   0  0  0  0  0  0  0  0  0  0  0  0
    9.0380   14.2053   23.0711 N   0  0  0  0  0  0  0  0  0  0  0  0
    7.8819   13.6078   23.6747 C   0  0  0  0  0  0  0  0  0  0  0  0
    6.7124   13.8005   23.4790 O   0  0  0  0  0  0  0  0  0  0  0  0
    8.3487   12.4697   24.6496 C   0  0  2  0  0  0  0  0  0  0  0  0
    8.8899   11.4299   23.6495 C   0  0  0  0  0  0  0  0  0  0  0  0
    9.1673   10.0255   24.0913 C   0  0  0  0  0  0  0  0  0  0  0  0
    7.7741    9.2649   24.9073 S   0  0  0  0  0  0  0  0  0  0  0  0
    6.9605   10.6007   25.7325 C   0  0  0  0  0  0  0  0  0  0  0  0
    5.9256   10.2029   26.6014 C   0  0  0  0  0  0  0  0  0  0  0  0
    5.2002   11.1304   27.3403 C   0  0  0  0  0  0  0  0  0  0  0  0
    5.4932   12.4756   27.2060 C   0  0  0  0  0  0  0  0  0  0  0  0
    6.5056   12.8805   26.3344 C   0  0  0  0  0  0  0  0  0  0  0  0
    7.2538   11.9581   25.5721 C   0  0  0  0  0  0  0  0  0  0  0  0
  2  1  1  1
  2  3  1  0
  3  4  1  0
  4  5  1  0
  5  6  1  6
  6  7  1  0
  6  8  2  0
  5  9  1  0
  9 10  1  0
 10 11  1  0
 11 12  2  0
 13 11  1  6
 13 14  1  0
 14 15  1  0
 15 16  1  0
 16 17  1  0
 17 18  2  0
 18 19  1  0
 19 20  2  0
 20 21  1  0
 21 22  2  0
 10  2  1  0
 22 13  1  0
 22 17  1  0
M  END
>  <alias>  (107) 
None

>  <Experiment code>  (107) 
nan

>  <CrystalformSites upload name>  (107) 
nan

>  <inchikey>  (107) 
AWQKJROYGCNUQN-SGMGOOAPSA-N

>  <Crystalforms upload name>  (107) 
nan

>  <Quatassemblies upload name>  (107) 
nan

>  <ConformerSites alias>  (107) 
nan

>  <ConformerSites short tag>  (107) 
nan

>  <Crystalforms short tag>  (107) 
nan

>  <Centroid res>  (107) 
nan

>  <Quatassemblies short tag>  (107) 
nan

>  <observation_longname>  (107) 
nan

>  <name>  (107) 
AWQKJROYGCNUQN-SGMGOOAPSA-N

>  <CanonSites upload name>  (107) 
nan

>  <tags>  (107) 
[]

>  <energy_score>  (107) 
162.770485

>  <original SMILES>  (107) 
C[C@H]1CC[C@H](C(N)=O)CN1C(=O)[C@@H]1CCSc2ccccc21

>  <ref_mols>  (107) 
A4386a

>  <Pose>  (107) 
nan

>  <distance_score>  (107) 
1.1169

>  <ConformerSites upload name>  (107) 
nan

>  <HIPPO Pose ID>  (107) 
209123

>  <Crystalforms alias>  (107) 
nan

>  <original ID>  (107) 
AWQKJROYGCNUQN-SGMGOOAPSA-N

>  <CanonSites alias>  (107) 
nan

>  <CrystalformSites alias>  (107) 
nan

>  <ref_pdb>  (107) 
A4386a

>  <CanonSites short tag>  (107) 
nan

>  <Quatassemblies alias>  (107) 
nan

>  <HIPPO Compound ID>  (107) 
123119

>  <CrystalformSites short tag>  (107) 
nan

$$$$
AWQKJROYGCNUQN-YRGRVCCFSA-N
     RDKit          3D

 22 24  0  0  0  0  0  0  0  0999 V2000
    7.9320   16.3925   23.6987 C   0  0  0  0  0  0  0  0  0  0  0  0
    9.1148   15.4050   23.5515 C   0  0  2  0  0  0  0  0  0  0  0  0
   10.5515   15.9971   23.5600 C   0  0  0  0  0  0  0  0  0  0  0  0
   11.2205   15.8449   22.2045 C   0  0  0  0  0  0  0  0  0  0  0  0
   10.1161   15.9954   21.1895 C   0  0  1  0  0  0  0  0  0  0  0  0
   10.5589   15.8882   19.7114 C   0  0  0  0  0  0  0  0  0  0  0  0
   11.1072   14.6065   19.3576 N   0  0  0  0  0  0  0  0  0  0  0  0
   10.4637   16.8981   19.0745 O   0  0  0  0  0  0  0  0  0  0  0  0
    8.9347   15.1104   21.5892 C   0  0  0  0  0  0  0  0  0  0  0  0
    8.9845   14.1229   22.7357 N   0  0  0  0  0  0  0  0  0  0  0  0
    7.9654   13.2901   23.2917 C   0  0  0  0  0  0  0  0  0  0  0  0
    6.7905   13.2287   23.0496 O   0  0  0  0  0  0  0  0  0  0  0  0
    8.6023   12.2957   24.3121 C   0  0  2  0  0  0  0  0  0  0  0  0
    9.1491   11.1829   23.4260 C   0  0  0  0  0  0  0  0  0  0  0  0
    9.4214    9.8283   24.0060 C   0  0  0  0  0  0  0  0  0  0  0  0
    7.9495    9.1591   24.7799 S   0  0  0  0  0  0  0  0  0  0  0  0
    7.2166   10.5542   25.5811 C   0  0  0  0  0  0  0  0  0  0  0  0
    6.1736   10.2619   26.4773 C   0  0  0  0  0  0  0  0  0  0  0  0
    5.5373   11.2679   27.1992 C   0  0  0  0  0  0  0  0  0  0  0  0
    5.9377   12.5841   27.0298 C   0  0  0  0  0  0  0  0  0  0  0  0
    6.9534   12.8874   26.1228 C   0  0  0  0  0  0  0  0  0  0  0  0
    7.5905   11.8812   25.3647 C   0  0  0  0  0  0  0  0  0  0  0  0
  2  1  1  6
  2  3  1  0
  3  4  1  0
  4  5  1  0
  5  6  1  6
  6  7  1  0
  6  8  2  0
  5  9  1  0
  9 10  1  0
 10 11  1  0
 11 12  2  0
 13 11  1  6
 13 14  1  0
 14 15  1  0
 15 16  1  0
 16 17  1  0
 17 18  2  0
 18 19  1  0
 19 20  2  0
 20 21  1  0
 21 22  2  0
 10  2  1  0
 22 13  1  0
 22 17  1  0
M  END
>  <alias>  (108) 
None

>  <Experiment code>  (108) 
nan

>  <CrystalformSites upload name>  (108) 
nan

>  <inchikey>  (108) 
AWQKJROYGCNUQN-YRGRVCCFSA-N

>  <Crystalforms upload name>  (108) 
nan

>  <Quatassemblies upload name>  (108) 
nan

>  <ConformerSites alias>  (108) 
nan

>  <ConformerSites short tag>  (108) 
nan

>  <Crystalforms short tag>  (108) 
nan

>  <Centroid res>  (108) 
nan

>  <Quatassemblies short tag>  (108) 
nan

>  <observation_longname>  (108) 
nan

>  <name>  (108) 
AWQKJROYGCNUQN-YRGRVCCFSA-N

>  <CanonSites upload name>  (108) 
nan

>  <tags>  (108) 
[]

>  <energy_score>  (108) 
-112.167285

>  <original SMILES>  (108) 
C[C@@H]1CC[C@@H](C(N)=O)CN1C(=O)[C@@H]1CCSc2ccccc21

>  <ref_mols>  (108) 
A4386a

>  <Pose>  (108) 
nan

>  <distance_score>  (108) 
1.084646

>  <ConformerSites upload name>  (108) 
nan

>  <HIPPO Pose ID>  (108) 
209124

>  <Crystalforms alias>  (108) 
nan

>  <original ID>  (108) 
AWQKJROYGCNUQN-YRGRVCCFSA-N

>  <CanonSites alias>  (108) 
nan

>  <CrystalformSites alias>  (108) 
nan

>  <ref_pdb>  (108) 
A4386a

>  <CanonSites short tag>  (108) 
nan

>  <Quatassemblies alias>  (108) 
nan

>  <HIPPO Compound ID>  (108) 
123119

>  <CrystalformSites short tag>  (108) 
nan

$$$$
AWQKJROYGCNUQN-OUCADQQQSA-N
     RDKit          3D

 22 24  0  0  0  0  0  0  0  0999 V2000
    9.0704   15.6248   25.2589 C   0  0  0  0  0  0  0  0  0  0  0  0
    9.3523   15.6285   23.7351 C   0  0  1  0  0  0  0  0  0  0  0  0
   10.8913   15.6946   23.5965 C   0  0  0  0  0  0  0  0  0  0  0  0
   11.3160   15.5709   22.1422 C   0  0  0  0  0  0  0  0  0  0  0  0
   10.1436   16.0228   21.2939 C   0  0  1  0  0  0  0  0  0  0  0  0
   10.3581   15.9586   19.7645 C   0  0  0  0  0  0  0  0  0  0  0  0
   10.7395   14.6616   19.2761 N   0  0  0  0  0  0  0  0  0  0  0  0
   10.2336   17.0025   19.1901 O   0  0  0  0  0  0  0  0  0  0  0  0
    8.8346   15.3835   21.7960 C   0  0  0  0  0  0  0  0  0  0  0  0
    8.8619   14.3732   22.9397 N   0  0  0  0  0  0  0  0  0  0  0  0
    7.7904   13.7264   23.6425 C   0  0  0  0  0  0  0  0  0  0  0  0
    6.6019   13.8853   23.5687 O   0  0  0  0  0  0  0  0  0  0  0  0
    8.3817   12.5768   24.5508 C   0  0  2  0  0  0  0  0  0  0  0  0
    8.8941   11.5620   23.5240 C   0  0  0  0  0  0  0  0  0  0  0  0
    9.2551   10.1730   23.9633 C   0  0  0  0  0  0  0  0  0  0  0  0
    7.9062    9.3431   24.7936 S   0  0  0  0  0  0  0  0  0  0  0  0
    7.0821   10.6491   25.6605 C   0  0  0  0  0  0  0  0  0  0  0  0
    6.0667   10.2186   26.5360 C   0  0  0  0  0  0  0  0  0  0  0  0
    5.3628   11.1173   27.3301 C   0  0  0  0  0  0  0  0  0  0  0  0
    5.6663   12.4654   27.2543 C   0  0  0  0  0  0  0  0  0  0  0  0
    6.6541   12.9048   26.3711 C   0  0  0  0  0  0  0  0  0  0  0  0
    7.3624   12.0146   25.5355 C   0  0  0  0  0  0  0  0  0  0  0  0
  2  1  1  1
  2  3  1  0
  3  4  1  0
  4  5  1  0
  5  6  1  6
  6  7  1  0
  6  8  2  0
  5  9  1  0
  9 10  1  0
 10 11  1  0
 11 12  2  0
 13 11  1  6
 13 14  1  0
 14 15  1  0
 15 16  1  0
 16 17  1  0
 17 18  2  0
 18 19  1  0
 19 20  2  0
 20 21  1  0
 21 22  2  0
 10  2  1  0
 22 13  1  0
 22 17  1  0
M  END
>  <alias>  (109) 
None

>  <Experiment code>  (109) 
nan

>  <CrystalformSites upload name>  (109) 
nan

>  <inchikey>  (109) 
AWQKJROYGCNUQN-OUCADQQQSA-N

>  <Crystalforms upload name>  (109) 
nan

>  <Quatassemblies upload name>  (109) 
nan

>  <ConformerSites alias>  (109) 
nan

>  <ConformerSites short tag>  (109) 
nan

>  <Crystalforms short tag>  (109) 
nan

>  <Centroid res>  (109) 
nan

>  <Quatassemblies short tag>  (109) 
nan

>  <observation_longname>  (109) 
nan

>  <name>  (109) 
AWQKJROYGCNUQN-OUCADQQQSA-N

>  <CanonSites upload name>  (109) 
nan

>  <tags>  (109) 
[]

>  <energy_score>  (109) 
134.697371

>  <original SMILES>  (109) 
C[C@H]1CC[C@@H](C(N)=O)CN1C(=O)[C@@H]1CCSc2ccccc21

>  <ref_mols>  (109) 
A4386a

>  <Pose>  (109) 
nan

>  <distance_score>  (109) 
1.049803

>  <ConformerSites upload name>  (109) 
nan

>  <HIPPO Pose ID>  (109) 
209125

>  <Crystalforms alias>  (109) 
nan

>  <original ID>  (109) 
AWQKJROYGCNUQN-OUCADQQQSA-N

>  <CanonSites alias>  (109) 
nan

>  <CrystalformSites alias>  (109) 
nan

>  <ref_pdb>  (109) 
A4386a

>  <CanonSites short tag>  (109) 
nan

>  <Quatassemblies alias>  (109) 
nan

>  <HIPPO Compound ID>  (109) 
123119

>  <CrystalformSites short tag>  (109) 
nan

$$$$
CAIXFUNHKQPGKQ-WBMJQRKESA-N
     RDKit          3D

 22 24  0  0  0  0  0  0  0  0999 V2000
    9.6713   15.9244   19.7984 N   0  0  0  0  0  0  0  0  0  0  0  0
    9.2091   15.3465   21.0497 C   0  0  0  0  0  0  0  0  0  0  0  0
    8.9966   14.2050   21.3524 O   0  0  0  0  0  0  0  0  0  0  0  0
    9.1039   16.4571   22.0987 C   0  0  2  0  0  0  0  0  0  0  0  0
    8.9505   17.6506   21.4397 F   0  0  0  0  0  0  0  0  0  0  0  0
   10.4259   16.5348   22.8481 C   0  0  0  0  0  0  0  0  0  0  0  0
   10.2721   16.1667   24.3087 C   0  0  0  0  0  0  0  0  0  0  0  0
    8.8103   16.1113   24.7636 C   0  0  0  0  0  0  0  0  0  0  0  0
    8.0008   15.0810   24.0104 N   0  0  0  0  0  0  0  0  0  0  0  0
    7.0231   14.4965   24.8723 C   0  0  0  0  0  0  0  0  0  0  0  0
    5.8852   14.8159   25.0915 O   0  0  0  0  0  0  0  0  0  0  0  0
    7.7025   13.3274   25.6653 C   0  0  2  0  0  0  0  0  0  0  0  0
    8.9157   12.6865   24.9643 C   0  0  0  0  0  0  0  0  0  0  0  0
    8.5166   11.6744   23.9186 C   0  0  0  0  0  0  0  0  0  0  0  0
    7.9214   10.1929   24.7559 S   0  0  0  0  0  0  0  0  0  0  0  0
    6.7551   10.9311   25.8841 C   0  0  0  0  0  0  0  0  0  0  0  0
    5.8608   10.0425   26.4993 C   0  0  0  0  0  0  0  0  0  0  0  0
    4.9534   10.4788   27.4604 C   0  0  0  0  0  0  0  0  0  0  0  0
    4.9192   11.8205   27.8081 C   0  0  0  0  0  0  0  0  0  0  0  0
    5.7990   12.7160   27.2008 C   0  0  0  0  0  0  0  0  0  0  0  0
    6.7310   12.2930   26.2303 C   0  0  0  0  0  0  0  0  0  0  0  0
    7.8888   16.2178   23.0128 C   0  0  0  0  0  0  0  0  0  0  0  0
  1  2  1  0
  2  3  2  0
  2  4  1  0
  4  5  1  6
  4  6  1  0
  6  7  1  0
  7  8  1  0
  8  9  1  0
  9 10  1  0
 10 11  2  0
 12 10  1  6
 12 13  1  0
 13 14  1  0
 14 15  1  0
 15 16  1  0
 16 17  2  0
 17 18  1  0
 18 19  2  0
 19 20  1  0
 20 21  2  0
  9 22  1  0
 22  4  1  0
 21 12  1  0
 21 16  1  0
M  END
>  <alias>  (110) 
None

>  <Experiment code>  (110) 
nan

>  <CrystalformSites upload name>  (110) 
nan

>  <inchikey>  (110) 
CAIXFUNHKQPGKQ-WBMJQRKESA-N

>  <Crystalforms upload name>  (110) 
nan

>  <Quatassemblies upload name>  (110) 
nan

>  <ConformerSites alias>  (110) 
nan

>  <ConformerSites short tag>  (110) 
nan

>  <Crystalforms short tag>  (110) 
nan

>  <Centroid res>  (110) 
nan

>  <Quatassemblies short tag>  (110) 
nan

>  <observation_longname>  (110) 
nan

>  <name>  (110) 
CAIXFUNHKQPGKQ-WBMJQRKESA-N

>  <CanonSites upload name>  (110) 
nan

>  <tags>  (110) 
[]

>  <energy_score>  (110) 
130.60117

>  <original SMILES>  (110) 
NC(=O)[C@]1(F)CCCN(C(=O)[C@@H]2CCSc3ccccc32)C1

>  <ref_mols>  (110) 
A4386a

>  <Pose>  (110) 
nan

>  <distance_score>  (110) 
1.866613

>  <ConformerSites upload name>  (110) 
nan

>  <HIPPO Pose ID>  (110) 
209132

>  <Crystalforms alias>  (110) 
nan

>  <original ID>  (110) 
CAIXFUNHKQPGKQ-WBMJQRKESA-N

>  <CanonSites alias>  (110) 
nan

>  <CrystalformSites alias>  (110) 
nan

>  <ref_pdb>  (110) 
A4386a

>  <CanonSites short tag>  (110) 
nan

>  <Quatassemblies alias>  (110) 
nan

>  <HIPPO Compound ID>  (110) 
123122

>  <CrystalformSites short tag>  (110) 
nan

$$$$
CAIXFUNHKQPGKQ-MLGOLLRUSA-N
     RDKit          3D

 22 24  0  0  0  0  0  0  0  0999 V2000
   11.0890   14.6396   19.1926 N   0  0  0  0  0  0  0  0  0  0  0  0
   10.4687   15.7739   19.8377 C   0  0  0  0  0  0  0  0  0  0  0  0
   10.1156   16.8272   19.3926 O   0  0  0  0  0  0  0  0  0  0  0  0
   10.3344   15.4520   21.3332 C   0  0  1  0  0  0  0  0  0  0  0  0
   11.0557   14.3090   21.6240 F   0  0  0  0  0  0  0  0  0  0  0  0
   10.8829   16.5532   22.2080 C   0  0  0  0  0  0  0  0  0  0  0  0
   10.3916   16.2632   23.6103 C   0  0  0  0  0  0  0  0  0  0  0  0
    8.8951   15.9171   23.5566 C   0  0  0  0  0  0  0  0  0  0  0  0
    8.6624   14.4987   23.0499 N   0  0  0  0  0  0  0  0  0  0  0  0
    7.4832   13.9474   23.6481 C   0  0  0  0  0  0  0  0  0  0  0  0
    6.3423   13.9636   23.2788 O   0  0  0  0  0  0  0  0  0  0  0  0
    7.9156   13.2663   24.9793 C   0  0  2  0  0  0  0  0  0  0  0  0
    9.1986   12.4436   24.8202 C   0  0  0  0  0  0  0  0  0  0  0  0
    8.9687   11.1801   24.0189 C   0  0  0  0  0  0  0  0  0  0  0  0
    7.9475    9.9949   24.9119 S   0  0  0  0  0  0  0  0  0  0  0  0
    6.7921   11.0701   25.7350 C   0  0  0  0  0  0  0  0  0  0  0  0
    5.8132   10.4218   26.5060 C   0  0  0  0  0  0  0  0  0  0  0  0
    4.8687   11.1503   27.2241 C   0  0  0  0  0  0  0  0  0  0  0  0
    4.8773   12.5371   27.1598 C   0  0  0  0  0  0  0  0  0  0  0  0
    5.8464   13.1928   26.4007 C   0  0  0  0  0  0  0  0  0  0  0  0
    6.8302   12.4744   25.6944 C   0  0  0  0  0  0  0  0  0  0  0  0
    8.8675   15.1790   21.7071 C   0  0  0  0  0  0  0  0  0  0  0  0
  1  2  1  0
  2  3  2  0
  2  4  1  0
  4  5  1  6
  4  6  1  0
  6  7  1  0
  7  8  1  0
  8  9  1  0
  9 10  1  0
 10 11  2  0
 12 10  1  6
 12 13  1  0
 13 14  1  0
 14 15  1  0
 15 16  1  0
 16 17  2  0
 17 18  1  0
 18 19  2  0
 19 20  1  0
 20 21  2  0
  9 22  1  0
 22  4  1  0
 21 12  1  0
 21 16  1  0
M  END
>  <alias>  (111) 
None

>  <Experiment code>  (111) 
nan

>  <CrystalformSites upload name>  (111) 
nan

>  <inchikey>  (111) 
CAIXFUNHKQPGKQ-MLGOLLRUSA-N

>  <Crystalforms upload name>  (111) 
nan

>  <Quatassemblies upload name>  (111) 
nan

>  <ConformerSites alias>  (111) 
nan

>  <ConformerSites short tag>  (111) 
nan

>  <Crystalforms short tag>  (111) 
nan

>  <Centroid res>  (111) 
nan

>  <Quatassemblies short tag>  (111) 
nan

>  <observation_longname>  (111) 
nan

>  <name>  (111) 
CAIXFUNHKQPGKQ-MLGOLLRUSA-N

>  <CanonSites upload name>  (111) 
nan

>  <tags>  (111) 
[]

>  <energy_score>  (111) 
162.73088

>  <original SMILES>  (111) 
NC(=O)[C@@]1(F)CCCN(C(=O)[C@@H]2CCSc3ccccc32)C1

>  <ref_mols>  (111) 
A4386a

>  <Pose>  (111) 
nan

>  <distance_score>  (111) 
1.260561

>  <ConformerSites upload name>  (111) 
nan

>  <HIPPO Pose ID>  (111) 
209133

>  <Crystalforms alias>  (111) 
nan

>  <original ID>  (111) 
CAIXFUNHKQPGKQ-MLGOLLRUSA-N

>  <CanonSites alias>  (111) 
nan

>  <CrystalformSites alias>  (111) 
nan

>  <ref_pdb>  (111) 
A4386a

>  <CanonSites short tag>  (111) 
nan

>  <Quatassemblies alias>  (111) 
nan

>  <HIPPO Compound ID>  (111) 
123122

>  <CrystalformSites short tag>  (111) 
nan

$$$$
CAIXFUNHKQPGKQ-WBMJQRKESA-N
     RDKit          3D

 22 24  0  0  0  0  0  0  0  0999 V2000
   11.4142   17.6252   21.8631 N   0  0  0  0  0  0  0  0  0  0  0  0
   10.9769   16.2569   22.0649 C   0  0  0  0  0  0  0  0  0  0  0  0
   11.5390   15.2206   21.8614 O   0  0  0  0  0  0  0  0  0  0  0  0
    9.6152   16.3172   22.7287 C   0  0  2  0  0  0  0  0  0  0  0  0
    9.0327   17.5262   22.4475 F   0  0  0  0  0  0  0  0  0  0  0  0
    9.8786   16.2755   24.2389 C   0  0  0  0  0  0  0  0  0  0  0  0
    8.5285   16.2766   24.9325 C   0  0  0  0  0  0  0  0  0  0  0  0
    7.5362   15.6004   23.9838 C   0  0  0  0  0  0  0  0  0  0  0  0
    8.2125   14.3264   23.4938 N   0  0  0  0  0  0  0  0  0  0  0  0
    7.3062   13.2470   23.5487 C   0  0  0  0  0  0  0  0  0  0  0  0
    6.5495   12.8272   22.7270 O   0  0  0  0  0  0  0  0  0  0  0  0
    7.5937   12.6387   24.9291 C   0  0  2  0  0  0  0  0  0  0  0  0
    8.9014   11.8589   24.8622 C   0  0  0  0  0  0  0  0  0  0  0  0
    8.7547   10.5201   24.1835 C   0  0  0  0  0  0  0  0  0  0  0  0
    7.6382    9.4363   25.0955 S   0  0  0  0  0  0  0  0  0  0  0  0
    6.4784   10.5533   25.8445 C   0  0  0  0  0  0  0  0  0  0  0  0
    5.5240    9.9854   26.7003 C   0  0  0  0  0  0  0  0  0  0  0  0
    4.5957   10.7733   27.3783 C   0  0  0  0  0  0  0  0  0  0  0  0
    4.5795   12.1442   27.1728 C   0  0  0  0  0  0  0  0  0  0  0  0
    5.5179   12.7219   26.3218 C   0  0  0  0  0  0  0  0  0  0  0  0
    6.4931   11.9383   25.6717 C   0  0  0  0  0  0  0  0  0  0  0  0
    8.6042   15.2288   22.3492 C   0  0  0  0  0  0  0  0  0  0  0  0
  1  2  1  0
  2  3  2  0
  2  4  1  0
  4  5  1  1
  4  6  1  0
  6  7  1  0
  7  8  1  0
  8  9  1  0
  9 10  1  0
 10 11  2  0
 12 10  1  6
 12 13  1  0
 13 14  1  0
 14 15  1  0
 15 16  1  0
 16 17  2  0
 17 18  1  0
 18 19  2  0
 19 20  1  0
 20 21  2  0
  9 22  1  0
 22  4  1  0
 21 12  1  0
 21 16  1  0
M  END
>  <alias>  (112) 
None

>  <Experiment code>  (112) 
nan

>  <CrystalformSites upload name>  (112) 
nan

>  <inchikey>  (112) 
CAIXFUNHKQPGKQ-WBMJQRKESA-N

>  <Crystalforms upload name>  (112) 
nan

>  <Quatassemblies upload name>  (112) 
nan

>  <ConformerSites alias>  (112) 
nan

>  <ConformerSites short tag>  (112) 
nan

>  <Crystalforms short tag>  (112) 
nan

>  <Centroid res>  (112) 
nan

>  <Quatassemblies short tag>  (112) 
nan

>  <observation_longname>  (112) 
nan

>  <name>  (112) 
CAIXFUNHKQPGKQ-WBMJQRKESA-N

>  <CanonSites upload name>  (112) 
nan

>  <tags>  (112) 
[]

>  <energy_score>  (112) 
26.281852

>  <original SMILES>  (112) 
NC(=O)[C@]1(F)CCCN(C(=O)[C@@H]2CCSc3ccccc32)C1

>  <ref_mols>  (112) 
A4386a

>  <Pose>  (112) 
nan

>  <distance_score>  (112) 
2.14836

>  <ConformerSites upload name>  (112) 
nan

>  <HIPPO Pose ID>  (112) 
209134

>  <Crystalforms alias>  (112) 
nan

>  <original ID>  (112) 
CAIXFUNHKQPGKQ-WBMJQRKESA-N

>  <CanonSites alias>  (112) 
nan

>  <CrystalformSites alias>  (112) 
nan

>  <ref_pdb>  (112) 
A4386a

>  <CanonSites short tag>  (112) 
nan

>  <Quatassemblies alias>  (112) 
nan

>  <HIPPO Compound ID>  (112) 
123122

>  <CrystalformSites short tag>  (112) 
nan

$$$$
CAIXFUNHKQPGKQ-MLGOLLRUSA-N
     RDKit          3D

 22 24  0  0  0  0  0  0  0  0999 V2000
   10.8858   14.7379   19.2378 N   0  0  0  0  0  0  0  0  0  0  0  0
   10.4866   15.8707   20.0431 C   0  0  0  0  0  0  0  0  0  0  0  0
   10.2145   16.9930   19.7295 O   0  0  0  0  0  0  0  0  0  0  0  0
   10.4521   15.4289   21.5083 C   0  0  1  0  0  0  0  0  0  0  0  0
   11.1238   14.2304   21.6361 F   0  0  0  0  0  0  0  0  0  0  0  0
   11.0938   16.3963   22.4667 C   0  0  0  0  0  0  0  0  0  0  0  0
   10.7201   15.9226   23.8624 C   0  0  0  0  0  0  0  0  0  0  0  0
    9.2406   15.5041   23.9167 C   0  0  0  0  0  0  0  0  0  0  0  0
    8.8827   14.2520   23.1216 N   0  0  0  0  0  0  0  0  0  0  0  0
    7.7388   13.6209   23.6895 C   0  0  0  0  0  0  0  0  0  0  0  0
    6.5716   13.7633   23.4513 O   0  0  0  0  0  0  0  0  0  0  0  0
    8.2519   12.5353   24.6877 C   0  0  2  0  0  0  0  0  0  0  0  0
    8.7756   11.4381   23.7470 C   0  0  0  0  0  0  0  0  0  0  0  0
    8.9316   10.0296   24.2424 C   0  0  0  0  0  0  0  0  0  0  0  0
    7.4798    9.3966   25.0780 S   0  0  0  0  0  0  0  0  0  0  0  0
    6.8100   10.8026   25.9078 C   0  0  0  0  0  0  0  0  0  0  0  0
    5.8004   10.5103   26.8427 C   0  0  0  0  0  0  0  0  0  0  0  0
    5.2013   11.5159   27.5946 C   0  0  0  0  0  0  0  0  0  0  0  0
    5.6044   12.8302   27.4158 C   0  0  0  0  0  0  0  0  0  0  0  0
    6.5946   13.1311   26.4802 C   0  0  0  0  0  0  0  0  0  0  0  0
    7.2011   12.1261   25.6972 C   0  0  0  0  0  0  0  0  0  0  0  0
    9.0047   15.2144   21.9651 C   0  0  0  0  0  0  0  0  0  0  0  0
  1  2  1  0
  2  3  2  0
  2  4  1  0
  4  5  1  6
  4  6  1  0
  6  7  1  0
  7  8  1  0
  8  9  1  0
  9 10  1  0
 10 11  2  0
 12 10  1  6
 12 13  1  0
 13 14  1  0
 14 15  1  0
 15 16  1  0
 16 17  2  0
 17 18  1  0
 18 19  2  0
 19 20  1  0
 20 21  2  0
  9 22  1  0
 22  4  1  0
 21 12  1  0
 21 16  1  0
M  END
>  <alias>  (113) 
None

>  <Experiment code>  (113) 
nan

>  <CrystalformSites upload name>  (113) 
nan

>  <inchikey>  (113) 
CAIXFUNHKQPGKQ-MLGOLLRUSA-N

>  <Crystalforms upload name>  (113) 
nan

>  <Quatassemblies upload name>  (113) 
nan

>  <ConformerSites alias>  (113) 
nan

>  <ConformerSites short tag>  (113) 
nan

>  <Crystalforms short tag>  (113) 
nan

>  <Centroid res>  (113) 
nan

>  <Quatassemblies short tag>  (113) 
nan

>  <observation_longname>  (113) 
nan

>  <name>  (113) 
CAIXFUNHKQPGKQ-MLGOLLRUSA-N

>  <CanonSites upload name>  (113) 
nan

>  <tags>  (113) 
[]

>  <energy_score>  (113) 
133.498674

>  <original SMILES>  (113) 
NC(=O)[C@@]1(F)CCCN(C(=O)[C@@H]2CCSc3ccccc32)C1

>  <ref_mols>  (113) 
A4386a

>  <Pose>  (113) 
nan

>  <distance_score>  (113) 
1.248376

>  <ConformerSites upload name>  (113) 
nan

>  <HIPPO Pose ID>  (113) 
209135

>  <Crystalforms alias>  (113) 
nan

>  <original ID>  (113) 
CAIXFUNHKQPGKQ-MLGOLLRUSA-N

>  <CanonSites alias>  (113) 
nan

>  <CrystalformSites alias>  (113) 
nan

>  <ref_pdb>  (113) 
A4386a

>  <CanonSites short tag>  (113) 
nan

>  <Quatassemblies alias>  (113) 
nan

>  <HIPPO Compound ID>  (113) 
123122

>  <CrystalformSites short tag>  (113) 
nan

$$$$
BGJAEFQQGGWPKQ-IACUBPJLSA-N
     RDKit          3D

 22 25  0  0  0  0  0  0  0  0999 V2000
    9.1414   16.2094   19.0043 O   0  0  0  0  0  0  0  0  0  0  0  0
    9.9016   15.9660   19.9119 C   0  0  0  0  0  0  0  0  0  0  0  0
   11.2788   16.0038   19.7972 N   0  0  0  0  0  0  0  0  0  0  0  0
   11.9285   15.8001   21.0613 C   0  0  0  0  0  0  0  0  0  0  0  0
   10.8116   16.0927   22.0271 C   0  0  2  0  0  0  0  0  0  0  0  0
   10.8228   15.5084   23.4098 C   0  0  0  0  0  0  0  0  0  0  0  0
    9.3728   15.6016   23.9280 C   0  0  0  0  0  0  0  0  0  0  0  0
    8.4176   14.6022   23.2777 N   0  0  0  0  0  0  0  0  0  0  0  0
    7.4022   14.2155   24.2118 C   0  0  0  0  0  0  0  0  0  0  0  0
    6.3189   14.6846   24.4232 O   0  0  0  0  0  0  0  0  0  0  0  0
    7.9354   12.8976   24.9074 C   0  0  2  0  0  0  0  0  0  0  0  0
    8.3793   11.9707   23.7606 C   0  0  0  0  0  0  0  0  0  0  0  0
    8.8330   10.5847   24.1160 C   0  0  0  0  0  0  0  0  0  0  0  0
    7.6132    9.6299   25.0086 S   0  0  0  0  0  0  0  0  0  0  0  0
    6.7428   10.8622   25.9440 C   0  0  0  0  0  0  0  0  0  0  0  0
    5.7915   10.3392   26.8404 C   0  0  0  0  0  0  0  0  0  0  0  0
    5.0942   11.1647   27.7153 C   0  0  0  0  0  0  0  0  0  0  0  0
    5.3467   12.5267   27.7077 C   0  0  0  0  0  0  0  0  0  0  0  0
    6.2726   13.0576   26.8081 C   0  0  0  0  0  0  0  0  0  0  0  0
    6.9578   12.2475   25.8786 C   0  0  0  0  0  0  0  0  0  0  0  0
    8.4075   15.6696   22.1617 C   0  0  0  0  0  0  0  0  0  0  0  0
    9.6372   15.4640   21.3031 C   0  0  1  0  0  0  0  0  0  0  0  0
  1  2  2  0
  2  3  1  0
  3  4  1  0
  5  4  1  6
  5  6  1  0
  6  7  1  0
  7  8  1  0
  8  9  1  0
  9 10  2  0
 11  9  1  6
 11 12  1  0
 12 13  1  0
 13 14  1  0
 14 15  1  0
 15 16  2  0
 16 17  1  0
 17 18  2  0
 18 19  1  0
 19 20  2  0
  8 21  1  0
 22 21  1  1
 22  2  1  0
 22  5  1  0
 20 11  1  0
 20 15  1  0
M  END
>  <alias>  (114) 
None

>  <Experiment code>  (114) 
nan

>  <CrystalformSites upload name>  (114) 
nan

>  <inchikey>  (114) 
BGJAEFQQGGWPKQ-IACUBPJLSA-N

>  <Crystalforms upload name>  (114) 
nan

>  <Quatassemblies upload name>  (114) 
nan

>  <ConformerSites alias>  (114) 
nan

>  <ConformerSites short tag>  (114) 
nan

>  <Crystalforms short tag>  (114) 
nan

>  <Centroid res>  (114) 
nan

>  <Quatassemblies short tag>  (114) 
nan

>  <observation_longname>  (114) 
nan

>  <name>  (114) 
BGJAEFQQGGWPKQ-IACUBPJLSA-N

>  <CanonSites upload name>  (114) 
nan

>  <tags>  (114) 
[]

>  <energy_score>  (114) 
16.790061

>  <original SMILES>  (114) 
O=C1NC[C@@H]2CCN(C(=O)[C@@H]3CCSc4ccccc43)C[C@@H]12

>  <ref_mols>  (114) 
A4386a

>  <Pose>  (114) 
nan

>  <distance_score>  (114) 
1.393146

>  <ConformerSites upload name>  (114) 
nan

>  <HIPPO Pose ID>  (114) 
209243

>  <Crystalforms alias>  (114) 
nan

>  <original ID>  (114) 
BGJAEFQQGGWPKQ-IACUBPJLSA-N

>  <CanonSites alias>  (114) 
nan

>  <CrystalformSites alias>  (114) 
nan

>  <ref_pdb>  (114) 
A4386a

>  <CanonSites short tag>  (114) 
nan

>  <Quatassemblies alias>  (114) 
nan

>  <HIPPO Compound ID>  (114) 
123147

>  <CrystalformSites short tag>  (114) 
nan

$$$$
BGJAEFQQGGWPKQ-IACUBPJLSA-N
     RDKit          3D

 22 25  0  0  0  0  0  0  0  0999 V2000
    9.2278   16.1825   18.9143 O   0  0  0  0  0  0  0  0  0  0  0  0
    9.9539   15.8439   19.8191 C   0  0  0  0  0  0  0  0  0  0  0  0
   11.3417   15.8590   19.7767 N   0  0  0  0  0  0  0  0  0  0  0  0
   11.8782   15.9194   21.1196 C   0  0  0  0  0  0  0  0  0  0  0  0
   10.6457   16.2463   21.9287 C   0  0  2  0  0  0  0  0  0  0  0  0
   10.5509   15.9117   23.3842 C   0  0  0  0  0  0  0  0  0  0  0  0
    9.0417   15.8423   23.7205 C   0  0  0  0  0  0  0  0  0  0  0  0
    8.3365   14.5962   23.1850 N   0  0  0  0  0  0  0  0  0  0  0  0
    7.2189   14.1544   24.1159 C   0  0  0  0  0  0  0  0  0  0  0  0
    6.0812   14.4504   24.1323 O   0  0  0  0  0  0  0  0  0  0  0  0
    7.8924   13.2326   25.1897 C   0  0  2  0  0  0  0  0  0  0  0  0
    9.2409   12.6215   24.7801 C   0  0  0  0  0  0  0  0  0  0  0  0
    9.0650   11.5508   23.7233 C   0  0  0  0  0  0  0  0  0  0  0  0
    8.4158   10.0620   24.4633 S   0  0  0  0  0  0  0  0  0  0  0  0
    7.1411   10.7782   25.4777 C   0  0  0  0  0  0  0  0  0  0  0  0
    6.2894    9.8511   26.0826 C   0  0  0  0  0  0  0  0  0  0  0  0
    5.2828   10.2497   26.9518 C   0  0  0  0  0  0  0  0  0  0  0  0
    5.1003   11.6000   27.2072 C   0  0  0  0  0  0  0  0  0  0  0  0
    5.9353   12.5413   26.6060 C   0  0  0  0  0  0  0  0  0  0  0  0
    6.9748   12.1495   25.7432 C   0  0  0  0  0  0  0  0  0  0  0  0
    8.3000   15.4816   21.9192 C   0  0  0  0  0  0  0  0  0  0  0  0
    9.6291   15.3849   21.2069 C   0  0  1  0  0  0  0  0  0  0  0  0
  1  2  2  0
  2  3  1  0
  3  4  1  0
  5  4  1  6
  5  6  1  0
  6  7  1  0
  7  8  1  0
  8  9  1  0
  9 10  2  0
 11  9  1  6
 11 12  1  0
 12 13  1  0
 13 14  1  0
 14 15  1  0
 15 16  2  0
 16 17  1  0
 17 18  2  0
 18 19  1  0
 19 20  2  0
  8 21  1  0
 22 21  1  1
 22  2  1  0
 22  5  1  0
 20 11  1  0
 20 15  1  0
M  END
>  <alias>  (115) 
None

>  <Experiment code>  (115) 
nan

>  <CrystalformSites upload name>  (115) 
nan

>  <inchikey>  (115) 
BGJAEFQQGGWPKQ-IACUBPJLSA-N

>  <Crystalforms upload name>  (115) 
nan

>  <Quatassemblies upload name>  (115) 
nan

>  <ConformerSites alias>  (115) 
nan

>  <ConformerSites short tag>  (115) 
nan

>  <Crystalforms short tag>  (115) 
nan

>  <Centroid res>  (115) 
nan

>  <Quatassemblies short tag>  (115) 
nan

>  <observation_longname>  (115) 
nan

>  <name>  (115) 
BGJAEFQQGGWPKQ-IACUBPJLSA-N

>  <CanonSites upload name>  (115) 
nan

>  <tags>  (115) 
[]

>  <energy_score>  (115) 
28.635572

>  <original SMILES>  (115) 
O=C1NC[C@@H]2CCN(C(=O)[C@@H]3CCSc4ccccc43)C[C@@H]12

>  <ref_mols>  (115) 
A4386a

>  <Pose>  (115) 
nan

>  <distance_score>  (115) 
1.174977

>  <ConformerSites upload name>  (115) 
nan

>  <HIPPO Pose ID>  (115) 
209244

>  <Crystalforms alias>  (115) 
nan

>  <original ID>  (115) 
BGJAEFQQGGWPKQ-IACUBPJLSA-N

>  <CanonSites alias>  (115) 
nan

>  <CrystalformSites alias>  (115) 
nan

>  <ref_pdb>  (115) 
A4386a

>  <CanonSites short tag>  (115) 
nan

>  <Quatassemblies alias>  (115) 
nan

>  <HIPPO Compound ID>  (115) 
123147

>  <CrystalformSites short tag>  (115) 
nan

$$$$
BGJAEFQQGGWPKQ-IACUBPJLSA-N
     RDKit          3D

 22 25  0  0  0  0  0  0  0  0999 V2000
    9.2304   16.1964   18.9152 O   0  0  0  0  0  0  0  0  0  0  0  0
    9.9573   15.8528   19.8172 C   0  0  0  0  0  0  0  0  0  0  0  0
   11.3446   15.8614   19.7751 N   0  0  0  0  0  0  0  0  0  0  0  0
   11.8852   15.9090   21.1159 C   0  0  0  0  0  0  0  0  0  0  0  0
   10.6563   16.2438   21.9281 C   0  0  2  0  0  0  0  0  0  0  0  0
   10.5618   15.9073   23.3832 C   0  0  0  0  0  0  0  0  0  0  0  0
    9.0531   15.8418   23.7216 C   0  0  0  0  0  0  0  0  0  0  0  0
    8.3454   14.5984   23.1838 N   0  0  0  0  0  0  0  0  0  0  0  0
    7.2307   14.1539   24.1164 C   0  0  0  0  0  0  0  0  0  0  0  0
    6.0935   14.4506   24.1375 O   0  0  0  0  0  0  0  0  0  0  0  0
    7.9079   13.2267   25.1835 C   0  0  2  0  0  0  0  0  0  0  0  0
    9.2513   12.6130   24.7605 C   0  0  0  0  0  0  0  0  0  0  0  0
    9.0605   11.5407   23.7080 C   0  0  0  0  0  0  0  0  0  0  0  0
    8.4315   10.0517   24.4664 S   0  0  0  0  0  0  0  0  0  0  0  0
    7.1538   10.7719   25.4767 C   0  0  0  0  0  0  0  0  0  0  0  0
    6.2974    9.8479   26.0798 C   0  0  0  0  0  0  0  0  0  0  0  0
    5.2904   10.2505   26.9468 C   0  0  0  0  0  0  0  0  0  0  0  0
    5.1124   11.6013   27.2019 C   0  0  0  0  0  0  0  0  0  0  0  0
    5.9511   12.5396   26.6015 C   0  0  0  0  0  0  0  0  0  0  0  0
    6.9904   12.1443   25.7398 C   0  0  0  0  0  0  0  0  0  0  0  0
    8.3055   15.4890   21.9208 C   0  0  0  0  0  0  0  0  0  0  0  0
    9.6326   15.3919   21.2047 C   0  0  1  0  0  0  0  0  0  0  0  0
  1  2  2  0
  2  3  1  0
  3  4  1  0
  5  4  1  6
  5  6  1  0
  6  7  1  0
  7  8  1  0
  8  9  1  0
  9 10  2  0
 11  9  1  6
 11 12  1  0
 12 13  1  0
 13 14  1  0
 14 15  1  0
 15 16  2  0
 16 17  1  0
 17 18  2  0
 18 19  1  0
 19 20  2  0
  8 21  1  0
 22 21  1  1
 22  2  1  0
 22  5  1  0
 20 11  1  0
 20 15  1  0
M  END
>  <alias>  (116) 
None

>  <Experiment code>  (116) 
nan

>  <CrystalformSites upload name>  (116) 
nan

>  <inchikey>  (116) 
BGJAEFQQGGWPKQ-IACUBPJLSA-N

>  <Crystalforms upload name>  (116) 
nan

>  <Quatassemblies upload name>  (116) 
nan

>  <ConformerSites alias>  (116) 
nan

>  <ConformerSites short tag>  (116) 
nan

>  <Crystalforms short tag>  (116) 
nan

>  <Centroid res>  (116) 
nan

>  <Quatassemblies short tag>  (116) 
nan

>  <observation_longname>  (116) 
nan

>  <name>  (116) 
BGJAEFQQGGWPKQ-IACUBPJLSA-N

>  <CanonSites upload name>  (116) 
nan

>  <tags>  (116) 
[]

>  <energy_score>  (116) 
27.561677

>  <original SMILES>  (116) 
O=C1NC[C@@H]2CCN(C(=O)[C@@H]3CCSc4ccccc43)C[C@@H]12

>  <ref_mols>  (116) 
A4386a

>  <Pose>  (116) 
nan

>  <distance_score>  (116) 
1.167924

>  <ConformerSites upload name>  (116) 
nan

>  <HIPPO Pose ID>  (116) 
209245

>  <Crystalforms alias>  (116) 
nan

>  <original ID>  (116) 
BGJAEFQQGGWPKQ-IACUBPJLSA-N

>  <CanonSites alias>  (116) 
nan

>  <CrystalformSites alias>  (116) 
nan

>  <ref_pdb>  (116) 
A4386a

>  <CanonSites short tag>  (116) 
nan

>  <Quatassemblies alias>  (116) 
nan

>  <HIPPO Compound ID>  (116) 
123147

>  <CrystalformSites short tag>  (116) 
nan

$$$$
BGJAEFQQGGWPKQ-IACUBPJLSA-N
     RDKit          3D

 22 25  0  0  0  0  0  0  0  0999 V2000
    9.1316   16.2282   18.9863 O   0  0  0  0  0  0  0  0  0  0  0  0
    9.8997   15.9576   19.8799 C   0  0  0  0  0  0  0  0  0  0  0  0
   11.2752   15.9766   19.7436 N   0  0  0  0  0  0  0  0  0  0  0  0
   11.9383   15.7353   20.9926 C   0  0  0  0  0  0  0  0  0  0  0  0
   10.8446   16.0391   21.9800 C   0  0  2  0  0  0  0  0  0  0  0  0
   10.8676   15.4445   23.3572 C   0  0  0  0  0  0  0  0  0  0  0  0
    9.4302   15.5765   23.9013 C   0  0  0  0  0  0  0  0  0  0  0  0
    8.4366   14.6018   23.2730 N   0  0  0  0  0  0  0  0  0  0  0  0
    7.4278   14.2468   24.2274 C   0  0  0  0  0  0  0  0  0  0  0  0
    6.3614   14.7467   24.4563 O   0  0  0  0  0  0  0  0  0  0  0  0
    7.9322   12.9159   24.9232 C   0  0  2  0  0  0  0  0  0  0  0  0
    8.3462   11.9670   23.7837 C   0  0  0  0  0  0  0  0  0  0  0  0
    8.7687   10.5737   24.1557 C   0  0  0  0  0  0  0  0  0  0  0  0
    7.5214    9.6610   25.0571 S   0  0  0  0  0  0  0  0  0  0  0  0
    6.6991   10.9220   25.9940 C   0  0  0  0  0  0  0  0  0  0  0  0
    5.7506   10.4285   26.9103 C   0  0  0  0  0  0  0  0  0  0  0  0
    5.0852   11.2781   27.7865 C   0  0  0  0  0  0  0  0  0  0  0  0
    5.3687   12.6339   27.7609 C   0  0  0  0  0  0  0  0  0  0  0  0
    6.2942   13.1348   26.8433 C   0  0  0  0  0  0  0  0  0  0  0  0
    6.9472   12.3007   25.9119 C   0  0  0  0  0  0  0  0  0  0  0  0
    8.4355   15.6661   22.1513 C   0  0  0  0  0  0  0  0  0  0  0  0
    9.6461   15.4419   21.2701 C   0  0  1  0  0  0  0  0  0  0  0  0
  1  2  2  0
  2  3  1  0
  3  4  1  0
  5  4  1  6
  5  6  1  0
  6  7  1  0
  7  8  1  0
  8  9  1  0
  9 10  2  0
 11  9  1  6
 11 12  1  0
 12 13  1  0
 13 14  1  0
 14 15  1  0
 15 16  2  0
 16 17  1  0
 17 18  2  0
 18 19  1  0
 19 20  2  0
  8 21  1  0
 22 21  1  1
 22  2  1  0
 22  5  1  0
 20 11  1  0
 20 15  1  0
M  END
>  <alias>  (117) 
None

>  <Experiment code>  (117) 
nan

>  <CrystalformSites upload name>  (117) 
nan

>  <inchikey>  (117) 
BGJAEFQQGGWPKQ-IACUBPJLSA-N

>  <Crystalforms upload name>  (117) 
nan

>  <Quatassemblies upload name>  (117) 
nan

>  <ConformerSites alias>  (117) 
nan

>  <ConformerSites short tag>  (117) 
nan

>  <Crystalforms short tag>  (117) 
nan

>  <Centroid res>  (117) 
nan

>  <Quatassemblies short tag>  (117) 
nan

>  <observation_longname>  (117) 
nan

>  <name>  (117) 
BGJAEFQQGGWPKQ-IACUBPJLSA-N

>  <CanonSites upload name>  (117) 
nan

>  <tags>  (117) 
[]

>  <energy_score>  (117) 
22.934185

>  <original SMILES>  (117) 
O=C1NC[C@@H]2CCN(C(=O)[C@@H]3CCSc4ccccc43)C[C@@H]12

>  <ref_mols>  (117) 
A4386a

>  <Pose>  (117) 
nan

>  <distance_score>  (117) 
1.431133

>  <ConformerSites upload name>  (117) 
nan

>  <HIPPO Pose ID>  (117) 
209246

>  <Crystalforms alias>  (117) 
nan

>  <original ID>  (117) 
BGJAEFQQGGWPKQ-IACUBPJLSA-N

>  <CanonSites alias>  (117) 
nan

>  <CrystalformSites alias>  (117) 
nan

>  <ref_pdb>  (117) 
A4386a

>  <CanonSites short tag>  (117) 
nan

>  <Quatassemblies alias>  (117) 
nan

>  <HIPPO Compound ID>  (117) 
123147

>  <CrystalformSites short tag>  (117) 
nan

$$$$
ZTGZMPJKZODOKZ-MBNYWOFBSA-N
     RDKit          3D

 22 24  0  0  0  0  0  0  0  0999 V2000
   10.6658   15.9832   26.0156 C   0  0  0  0  0  0  0  0  0  0  0  0
   10.5098   15.1744   24.7357 C   0  0  2  0  0  0  0  0  0  0  0  0
   11.3209   15.6767   23.5544 C   0  0  0  0  0  0  0  0  0  0  0  0
   10.8642   14.9434   22.2845 C   0  0  2  0  0  0  0  0  0  0  0  0
   11.3177   15.6693   21.0139 C   0  0  0  0  0  0  0  0  0  0  0  0
   11.2331   14.8128   19.8483 N   0  0  0  0  0  0  0  0  0  0  0  0
   11.6495   16.8159   21.1169 O   0  0  0  0  0  0  0  0  0  0  0  0
    9.3285   14.8416   22.3191 C   0  0  0  0  0  0  0  0  0  0  0  0
    8.8596   13.9108   23.4054 N   0  0  0  0  0  0  0  0  0  0  0  0
    7.5792   13.3480   23.6574 C   0  0  0  0  0  0  0  0  0  0  0  0
    6.5253   13.5409   23.1231 O   0  0  0  0  0  0  0  0  0  0  0  0
    7.8314   12.3061   24.7708 C   0  0  2  0  0  0  0  0  0  0  0  0
    8.4234   11.1014   24.0358 C   0  0  0  0  0  0  0  0  0  0  0  0
    8.4143    9.8010   24.7700 C   0  0  0  0  0  0  0  0  0  0  0  0
    6.8166    9.3496   25.4379 S   0  0  0  0  0  0  0  0  0  0  0  0
    6.2398   10.8580   26.1349 C   0  0  0  0  0  0  0  0  0  0  0  0
    5.2412   10.7351   27.1132 C   0  0  0  0  0  0  0  0  0  0  0  0
    4.6826   11.8603   27.7083 C   0  0  0  0  0  0  0  0  0  0  0  0
    5.1152   13.1197   27.3209 C   0  0  0  0  0  0  0  0  0  0  0  0
    6.1103   13.2462   26.3509 C   0  0  0  0  0  0  0  0  0  0  0  0
    6.6886   12.1169   25.7390 C   0  0  0  0  0  0  0  0  0  0  0  0
    9.0586   15.1479   24.2543 C   0  0  0  0  0  0  0  0  0  0  0  0
  2  1  1  1
  2  3  1  0
  3  4  1  0
  4  5  1  6
  5  6  1  0
  5  7  2  0
  4  8  1  0
  8  9  1  0
  9 10  1  0
 10 11  2  0
 12 10  1  6
 12 13  1  0
 13 14  1  0
 14 15  1  0
 15 16  1  0
 16 17  2  0
 17 18  1  0
 18 19  2  0
 19 20  1  0
 20 21  2  0
  9 22  1  0
 22  2  1  0
 21 12  1  0
 21 16  1  0
M  END
>  <alias>  (118) 
None

>  <Experiment code>  (118) 
nan

>  <CrystalformSites upload name>  (118) 
nan

>  <inchikey>  (118) 
ZTGZMPJKZODOKZ-MBNYWOFBSA-N

>  <Crystalforms upload name>  (118) 
nan

>  <Quatassemblies upload name>  (118) 
nan

>  <ConformerSites alias>  (118) 
nan

>  <ConformerSites short tag>  (118) 
nan

>  <Crystalforms short tag>  (118) 
nan

>  <Centroid res>  (118) 
nan

>  <Quatassemblies short tag>  (118) 
nan

>  <observation_longname>  (118) 
nan

>  <name>  (118) 
ZTGZMPJKZODOKZ-MBNYWOFBSA-N

>  <CanonSites upload name>  (118) 
nan

>  <tags>  (118) 
[]

>  <energy_score>  (118) 
114.433031

>  <original SMILES>  (118) 
C[C@@H]1C[C@H](C(N)=O)CN(C(=O)[C@@H]2CCSc3ccccc32)C1

>  <ref_mols>  (118) 
A4386a

>  <Pose>  (118) 
nan

>  <distance_score>  (118) 
1.770226

>  <ConformerSites upload name>  (118) 
nan

>  <HIPPO Pose ID>  (118) 
209251

>  <Crystalforms alias>  (118) 
nan

>  <original ID>  (118) 
ZTGZMPJKZODOKZ-MBNYWOFBSA-N

>  <CanonSites alias>  (118) 
nan

>  <CrystalformSites alias>  (118) 
nan

>  <ref_pdb>  (118) 
A4386a

>  <CanonSites short tag>  (118) 
nan

>  <Quatassemblies alias>  (118) 
nan

>  <HIPPO Compound ID>  (118) 
123149

>  <CrystalformSites short tag>  (118) 
nan

$$$$
ZTGZMPJKZODOKZ-SGMGOOAPSA-N
     RDKit          3D

 22 24  0  0  0  0  0  0  0  0999 V2000
   11.2624   15.1369   24.2905 C   0  0  0  0  0  0  0  0  0  0  0  0
   10.3746   16.2036   23.6435 C   0  0  1  0  0  0  0  0  0  0  0  0
   10.8441   16.5511   22.2415 C   0  0  0  0  0  0  0  0  0  0  0  0
   10.3756   15.4338   21.3313 C   0  0  2  0  0  0  0  0  0  0  0  0
   10.4707   15.8158   19.8493 C   0  0  0  0  0  0  0  0  0  0  0  0
   10.7467   14.6444   19.0621 N   0  0  0  0  0  0  0  0  0  0  0  0
   10.3371   16.9579   19.5246 O   0  0  0  0  0  0  0  0  0  0  0  0
    8.9227   15.0916   21.6840 C   0  0  0  0  0  0  0  0  0  0  0  0
    8.7092   14.3635   22.9878 N   0  0  0  0  0  0  0  0  0  0  0  0
    7.5298   13.7570   23.5395 C   0  0  0  0  0  0  0  0  0  0  0  0
    6.3974   13.7547   23.1433 O   0  0  0  0  0  0  0  0  0  0  0  0
    7.9269   13.0747   24.8760 C   0  0  2  0  0  0  0  0  0  0  0  0
    9.1537   12.1800   24.7279 C   0  0  0  0  0  0  0  0  0  0  0  0
    8.8651   10.8695   24.0367 C   0  0  0  0  0  0  0  0  0  0  0  0
    7.8022    9.8088   25.0237 S   0  0  0  0  0  0  0  0  0  0  0  0
    6.7042   10.9899   25.7737 C   0  0  0  0  0  0  0  0  0  0  0  0
    5.7007   10.4408   26.5889 C   0  0  0  0  0  0  0  0  0  0  0  0
    4.7913   11.2586   27.2542 C   0  0  0  0  0  0  0  0  0  0  0  0
    4.8617   12.6357   27.0941 C   0  0  0  0  0  0  0  0  0  0  0  0
    5.8573   13.1931   26.2921 C   0  0  0  0  0  0  0  0  0  0  0  0
    6.8051   12.3841   25.6359 C   0  0  0  0  0  0  0  0  0  0  0  0
    8.8901   15.7731   23.5508 C   0  0  0  0  0  0  0  0  0  0  0  0
  2  1  1  6
  2  3  1  0
  3  4  1  0
  4  5  1  6
  5  6  1  0
  5  7  2  0
  4  8  1  0
  8  9  1  0
  9 10  1  0
 10 11  2  0
 12 10  1  6
 12 13  1  0
 13 14  1  0
 14 15  1  0
 15 16  1  0
 16 17  2  0
 17 18  1  0
 18 19  2  0
 19 20  1  0
 20 21  2  0
  9 22  1  0
 22  2  1  0
 21 12  1  0
 21 16  1  0
M  END
>  <alias>  (119) 
None

>  <Experiment code>  (119) 
nan

>  <CrystalformSites upload name>  (119) 
nan

>  <inchikey>  (119) 
ZTGZMPJKZODOKZ-SGMGOOAPSA-N

>  <Crystalforms upload name>  (119) 
nan

>  <Quatassemblies upload name>  (119) 
nan

>  <ConformerSites alias>  (119) 
nan

>  <ConformerSites short tag>  (119) 
nan

>  <Crystalforms short tag>  (119) 
nan

>  <Centroid res>  (119) 
nan

>  <Quatassemblies short tag>  (119) 
nan

>  <observation_longname>  (119) 
nan

>  <name>  (119) 
ZTGZMPJKZODOKZ-SGMGOOAPSA-N

>  <CanonSites upload name>  (119) 
nan

>  <tags>  (119) 
[]

>  <energy_score>  (119) 
75.612994

>  <original SMILES>  (119) 
C[C@H]1C[C@H](C(N)=O)CN(C(=O)[C@@H]2CCSc3ccccc32)C1

>  <ref_mols>  (119) 
A4386a

>  <Pose>  (119) 
nan

>  <distance_score>  (119) 
1.272984

>  <ConformerSites upload name>  (119) 
nan

>  <HIPPO Pose ID>  (119) 
209252

>  <Crystalforms alias>  (119) 
nan

>  <original ID>  (119) 
ZTGZMPJKZODOKZ-SGMGOOAPSA-N

>  <CanonSites alias>  (119) 
nan

>  <CrystalformSites alias>  (119) 
nan

>  <ref_pdb>  (119) 
A4386a

>  <CanonSites short tag>  (119) 
nan

>  <Quatassemblies alias>  (119) 
nan

>  <HIPPO Compound ID>  (119) 
123149

>  <CrystalformSites short tag>  (119) 
nan

$$$$
ZTGZMPJKZODOKZ-YRGRVCCFSA-N
     RDKit          3D

 22 24  0  0  0  0  0  0  0  0999 V2000
   11.2885   15.7281   24.6011 C   0  0  0  0  0  0  0  0  0  0  0  0
   10.5186   15.3922   23.3548 C   0  0  2  0  0  0  0  0  0  0  0  0
   10.9097   16.1243   22.1000 C   0  0  0  0  0  0  0  0  0  0  0  0
    9.7041   16.0697   21.1601 C   0  0  1  0  0  0  0  0  0  0  0  0
   10.1266   15.9214   19.6804 C   0  0  0  0  0  0  0  0  0  0  0  0
   10.7540   14.6645   19.3765 N   0  0  0  0  0  0  0  0  0  0  0  0
    9.9521   16.8901   18.9989 O   0  0  0  0  0  0  0  0  0  0  0  0
    8.4775   15.2088   21.6542 C   0  0  0  0  0  0  0  0  0  0  0  0
    8.4082   14.3507   22.9406 N   0  0  0  0  0  0  0  0  0  0  0  0
    7.2802   13.9242   23.7238 C   0  0  0  0  0  0  0  0  0  0  0  0
    6.1154   14.2006   23.6275 O   0  0  0  0  0  0  0  0  0  0  0  0
    7.7895   13.0452   24.9203 C   0  0  2  0  0  0  0  0  0  0  0  0
    9.0594   12.2301   24.6859 C   0  0  0  0  0  0  0  0  0  0  0  0
    8.8082   10.9441   23.9445 C   0  0  0  0  0  0  0  0  0  0  0  0
    7.8657    9.7798   24.9372 S   0  0  0  0  0  0  0  0  0  0  0  0
    6.7101   10.8577   25.7543 C   0  0  0  0  0  0  0  0  0  0  0  0
    5.7580   10.2177   26.5646 C   0  0  0  0  0  0  0  0  0  0  0  0
    4.8288   10.9492   27.2995 C   0  0  0  0  0  0  0  0  0  0  0  0
    4.8244   12.3334   27.2132 C   0  0  0  0  0  0  0  0  0  0  0  0
    5.7635   12.9807   26.4113 C   0  0  0  0  0  0  0  0  0  0  0  0
    6.7281   12.2590   25.6789 C   0  0  0  0  0  0  0  0  0  0  0  0
    9.0085   15.5736   23.5346 C   0  0  0  0  0  0  0  0  0  0  0  0
  2  1  1  1
  2  3  1  0
  3  4  1  0
  4  5  1  6
  5  6  1  0
  5  7  2  0
  4  8  1  0
  8  9  1  0
  9 10  1  0
 10 11  2  0
 12 10  1  6
 12 13  1  0
 13 14  1  0
 14 15  1  0
 15 16  1  0
 16 17  2  0
 17 18  1  0
 18 19  2  0
 19 20  1  0
 20 21  2  0
  9 22  1  0
 22  2  1  0
 21 12  1  0
 21 16  1  0
M  END
>  <alias>  (120) 
None

>  <Experiment code>  (120) 
nan

>  <CrystalformSites upload name>  (120) 
nan

>  <inchikey>  (120) 
ZTGZMPJKZODOKZ-YRGRVCCFSA-N

>  <Crystalforms upload name>  (120) 
nan

>  <Quatassemblies upload name>  (120) 
nan

>  <ConformerSites alias>  (120) 
nan

>  <ConformerSites short tag>  (120) 
nan

>  <Crystalforms short tag>  (120) 
nan

>  <Centroid res>  (120) 
nan

>  <Quatassemblies short tag>  (120) 
nan

>  <observation_longname>  (120) 
nan

>  <name>  (120) 
ZTGZMPJKZODOKZ-YRGRVCCFSA-N

>  <CanonSites upload name>  (120) 
nan

>  <tags>  (120) 
[]

>  <energy_score>  (120) 
185.144242

>  <original SMILES>  (120) 
C[C@@H]1C[C@@H](C(N)=O)CN(C(=O)[C@@H]2CCSc3ccccc32)C1

>  <ref_mols>  (120) 
A4386a

>  <Pose>  (120) 
nan

>  <distance_score>  (120) 
1.265914

>  <ConformerSites upload name>  (120) 
nan

>  <HIPPO Pose ID>  (120) 
209253

>  <Crystalforms alias>  (120) 
nan

>  <original ID>  (120) 
ZTGZMPJKZODOKZ-YRGRVCCFSA-N

>  <CanonSites alias>  (120) 
nan

>  <CrystalformSites alias>  (120) 
nan

>  <ref_pdb>  (120) 
A4386a

>  <CanonSites short tag>  (120) 
nan

>  <Quatassemblies alias>  (120) 
nan

>  <HIPPO Compound ID>  (120) 
123149

>  <CrystalformSites short tag>  (120) 
nan

$$$$
ZTGZMPJKZODOKZ-SGMGOOAPSA-N
     RDKit          3D

 22 24  0  0  0  0  0  0  0  0999 V2000
   11.3521   15.0890   24.2413 C   0  0  0  0  0  0  0  0  0  0  0  0
   10.5031   16.1463   23.5307 C   0  0  1  0  0  0  0  0  0  0  0  0
   11.0086   16.3898   22.1183 C   0  0  0  0  0  0  0  0  0  0  0  0
   10.4763   15.2732   21.2394 C   0  0  2  0  0  0  0  0  0  0  0  0
   10.5854   15.6642   19.7602 C   0  0  0  0  0  0  0  0  0  0  0  0
   11.9453   15.5153   19.2899 N   0  0  0  0  0  0  0  0  0  0  0  0
    9.5975   16.0230   19.1871 O   0  0  0  0  0  0  0  0  0  0  0  0
    9.0099   15.0053   21.6263 C   0  0  0  0  0  0  0  0  0  0  0  0
    8.7751   14.3378   22.9579 N   0  0  0  0  0  0  0  0  0  0  0  0
    7.5759   13.7948   23.5353 C   0  0  0  0  0  0  0  0  0  0  0  0
    6.4424   13.8163   23.1412 O   0  0  0  0  0  0  0  0  0  0  0  0
    7.9555   13.1248   24.8815 C   0  0  2  0  0  0  0  0  0  0  0  0
    9.1606   12.1977   24.7468 C   0  0  0  0  0  0  0  0  0  0  0  0
    8.8420   10.8929   24.0554 C   0  0  0  0  0  0  0  0  0  0  0  0
    7.7644    9.8622   25.0606 S   0  0  0  0  0  0  0  0  0  0  0  0
    6.6870   11.0723   25.7937 C   0  0  0  0  0  0  0  0  0  0  0  0
    5.6688   10.5489   26.6077 C   0  0  0  0  0  0  0  0  0  0  0  0
    4.7692   11.3896   27.2573 C   0  0  0  0  0  0  0  0  0  0  0  0
    4.8668   12.7638   27.0847 C   0  0  0  0  0  0  0  0  0  0  0  0
    5.8791   13.2958   26.2858 C   0  0  0  0  0  0  0  0  0  0  0  0
    6.8161   12.4635   25.6439 C   0  0  0  0  0  0  0  0  0  0  0  0
    9.0061   15.7570   23.4621 C   0  0  0  0  0  0  0  0  0  0  0  0
  2  1  1  6
  2  3  1  0
  3  4  1  0
  4  5  1  6
  5  6  1  0
  5  7  2  0
  4  8  1  0
  8  9  1  0
  9 10  1  0
 10 11  2  0
 12 10  1  6
 12 13  1  0
 13 14  1  0
 14 15  1  0
 15 16  1  0
 16 17  2  0
 17 18  1  0
 18 19  2  0
 19 20  1  0
 20 21  2  0
  9 22  1  0
 22  2  1  0
 21 12  1  0
 21 16  1  0
M  END
>  <alias>  (121) 
None

>  <Experiment code>  (121) 
nan

>  <CrystalformSites upload name>  (121) 
nan

>  <inchikey>  (121) 
ZTGZMPJKZODOKZ-SGMGOOAPSA-N

>  <Crystalforms upload name>  (121) 
nan

>  <Quatassemblies upload name>  (121) 
nan

>  <ConformerSites alias>  (121) 
nan

>  <ConformerSites short tag>  (121) 
nan

>  <Crystalforms short tag>  (121) 
nan

>  <Centroid res>  (121) 
nan

>  <Quatassemblies short tag>  (121) 
nan

>  <observation_longname>  (121) 
nan

>  <name>  (121) 
ZTGZMPJKZODOKZ-SGMGOOAPSA-N

>  <CanonSites upload name>  (121) 
nan

>  <tags>  (121) 
[]

>  <energy_score>  (121) 
138.772771

>  <original SMILES>  (121) 
C[C@H]1C[C@H](C(N)=O)CN(C(=O)[C@@H]2CCSc3ccccc32)C1

>  <ref_mols>  (121) 
A4386a

>  <Pose>  (121) 
nan

>  <distance_score>  (121) 
1.339185

>  <ConformerSites upload name>  (121) 
nan

>  <HIPPO Pose ID>  (121) 
209254

>  <Crystalforms alias>  (121) 
nan

>  <original ID>  (121) 
ZTGZMPJKZODOKZ-SGMGOOAPSA-N

>  <CanonSites alias>  (121) 
nan

>  <CrystalformSites alias>  (121) 
nan

>  <ref_pdb>  (121) 
A4386a

>  <CanonSites short tag>  (121) 
nan

>  <Quatassemblies alias>  (121) 
nan

>  <HIPPO Compound ID>  (121) 
123149

>  <CrystalformSites short tag>  (121) 
nan

$$$$
ZTGZMPJKZODOKZ-YRGRVCCFSA-N
     RDKit          3D

 22 24  0  0  0  0  0  0  0  0999 V2000
   11.1818   15.4013   25.1707 C   0  0  0  0  0  0  0  0  0  0  0  0
    9.9620   15.3048   24.2804 C   0  0  2  0  0  0  0  0  0  0  0  0
   10.0095   16.2787   23.1207 C   0  0  0  0  0  0  0  0  0  0  0  0
    8.6059   16.3985   22.5220 C   0  0  1  0  0  0  0  0  0  0  0  0
    8.5070   15.3807   21.3603 C   0  0  0  0  0  0  0  0  0  0  0  0
    7.7189   14.2098   21.6862 N   0  0  0  0  0  0  0  0  0  0  0  0
    9.1288   15.6528   20.3703 O   0  0  0  0  0  0  0  0  0  0  0  0
    7.5137   16.3176   23.6144 C   0  0  0  0  0  0  0  0  0  0  0  0
    7.4863   14.9641   24.3556 N   0  0  0  0  0  0  0  0  0  0  0  0
    6.5490   14.4360   25.3175 C   0  0  0  0  0  0  0  0  0  0  0  0
    5.6054   14.9527   25.8486 O   0  0  0  0  0  0  0  0  0  0  0  0
    7.0410   12.9714   25.6981 C   0  0  2  0  0  0  0  0  0  0  0  0
    7.5458   12.2190   24.4536 C   0  0  0  0  0  0  0  0  0  0  0  0
    8.1805   10.8888   24.7644 C   0  0  0  0  0  0  0  0  0  0  0  0
    6.9869    9.7174   25.3914 S   0  0  0  0  0  0  0  0  0  0  0  0
    6.0335   10.7358   26.4934 C   0  0  0  0  0  0  0  0  0  0  0  0
    5.1887   10.0143   27.3555 C   0  0  0  0  0  0  0  0  0  0  0  0
    4.4583   10.6542   28.3481 C   0  0  0  0  0  0  0  0  0  0  0  0
    4.5789   12.0251   28.4975 C   0  0  0  0  0  0  0  0  0  0  0  0
    5.4080   12.7511   27.6397 C   0  0  0  0  0  0  0  0  0  0  0  0
    6.1163   12.1379   26.5870 C   0  0  0  0  0  0  0  0  0  0  0  0
    8.6780   15.5790   25.0710 C   0  0  0  0  0  0  0  0  0  0  0  0
  2  1  1  1
  2  3  1  0
  3  4  1  0
  4  5  1  6
  5  6  1  0
  5  7  2  0
  4  8  1  0
  8  9  1  0
  9 10  1  0
 10 11  2  0
 12 10  1  6
 12 13  1  0
 13 14  1  0
 14 15  1  0
 15 16  1  0
 16 17  2  0
 17 18  1  0
 18 19  2  0
 19 20  1  0
 20 21  2  0
  9 22  1  0
 22  2  1  0
 21 12  1  0
 21 16  1  0
M  END
>  <alias>  (122) 
None

>  <Experiment code>  (122) 
nan

>  <CrystalformSites upload name>  (122) 
nan

>  <inchikey>  (122) 
ZTGZMPJKZODOKZ-YRGRVCCFSA-N

>  <Crystalforms upload name>  (122) 
nan

>  <Quatassemblies upload name>  (122) 
nan

>  <ConformerSites alias>  (122) 
nan

>  <ConformerSites short tag>  (122) 
nan

>  <Crystalforms short tag>  (122) 
nan

>  <Centroid res>  (122) 
nan

>  <Quatassemblies short tag>  (122) 
nan

>  <observation_longname>  (122) 
nan

>  <name>  (122) 
ZTGZMPJKZODOKZ-YRGRVCCFSA-N

>  <CanonSites upload name>  (122) 
nan

>  <tags>  (122) 
[]

>  <energy_score>  (122) 
158.328284

>  <original SMILES>  (122) 
C[C@@H]1C[C@@H](C(N)=O)CN(C(=O)[C@@H]2CCSc3ccccc32)C1

>  <ref_mols>  (122) 
A4386a

>  <Pose>  (122) 
nan

>  <distance_score>  (122) 
2.487494

>  <ConformerSites upload name>  (122) 
nan

>  <HIPPO Pose ID>  (122) 
209255

>  <Crystalforms alias>  (122) 
nan

>  <original ID>  (122) 
ZTGZMPJKZODOKZ-YRGRVCCFSA-N

>  <CanonSites alias>  (122) 
nan

>  <CrystalformSites alias>  (122) 
nan

>  <ref_pdb>  (122) 
A4386a

>  <CanonSites short tag>  (122) 
nan

>  <Quatassemblies alias>  (122) 
nan

>  <HIPPO Compound ID>  (122) 
123149

>  <CrystalformSites short tag>  (122) 
nan

$$$$
ZTGZMPJKZODOKZ-OUCADQQQSA-N
     RDKit          3D

 22 24  0  0  0  0  0  0  0  0999 V2000
   11.5364   14.7025   24.5078 C   0  0  0  0  0  0  0  0  0  0  0  0
   10.8066   15.7193   23.6298 C   0  0  1  0  0  0  0  0  0  0  0  0
   11.2805   15.6187   22.1798 C   0  0  0  0  0  0  0  0  0  0  0  0
   10.1146   16.0303   21.2986 C   0  0  1  0  0  0  0  0  0  0  0  0
   10.3744   15.9578   19.7755 C   0  0  0  0  0  0  0  0  0  0  0  0
   10.7684   14.6561   19.3079 N   0  0  0  0  0  0  0  0  0  0  0  0
   10.2773   16.9991   19.1919 O   0  0  0  0  0  0  0  0  0  0  0  0
    8.8132   15.3499   21.7642 C   0  0  0  0  0  0  0  0  0  0  0  0
    8.8346   14.3347   22.9030 N   0  0  0  0  0  0  0  0  0  0  0  0
    7.7637   13.6715   23.5823 C   0  0  0  0  0  0  0  0  0  0  0  0
    6.5757   13.8134   23.4887 O   0  0  0  0  0  0  0  0  0  0  0  0
    8.3734   12.5533   24.5041 C   0  0  2  0  0  0  0  0  0  0  0  0
    8.9021   11.5089   23.5239 C   0  0  0  0  0  0  0  0  0  0  0  0
    9.2200   10.1221   24.0028 C   0  0  0  0  0  0  0  0  0  0  0  0
    7.8389    9.3496   24.8411 S   0  0  0  0  0  0  0  0  0  0  0  0
    7.0589   10.6909   25.6920 C   0  0  0  0  0  0  0  0  0  0  0  0
    6.0493   10.3134   26.5961 C   0  0  0  0  0  0  0  0  0  0  0  0
    5.3877   11.2565   27.3770 C   0  0  0  0  0  0  0  0  0  0  0  0
    5.7297   12.5945   27.2617 C   0  0  0  0  0  0  0  0  0  0  0  0
    6.7123   12.9822   26.3502 C   0  0  0  0  0  0  0  0  0  0  0  0
    7.3717   12.0433   25.5271 C   0  0  0  0  0  0  0  0  0  0  0  0
    9.2745   15.5476   23.6886 C   0  0  0  0  0  0  0  0  0  0  0  0
  2  1  1  1
  2  3  1  0
  3  4  1  0
  4  5  1  6
  5  6  1  0
  5  7  2  0
  4  8  1  0
  8  9  1  0
  9 10  1  0
 10 11  2  0
 12 10  1  6
 12 13  1  0
 13 14  1  0
 14 15  1  0
 15 16  1  0
 16 17  2  0
 17 18  1  0
 18 19  2  0
 19 20  1  0
 20 21  2  0
  9 22  1  0
 22  2  1  0
 21 12  1  0
 21 16  1  0
M  END
>  <alias>  (123) 
None

>  <Experiment code>  (123) 
nan

>  <CrystalformSites upload name>  (123) 
nan

>  <inchikey>  (123) 
ZTGZMPJKZODOKZ-OUCADQQQSA-N

>  <Crystalforms upload name>  (123) 
nan

>  <Quatassemblies upload name>  (123) 
nan

>  <ConformerSites alias>  (123) 
nan

>  <ConformerSites short tag>  (123) 
nan

>  <Crystalforms short tag>  (123) 
nan

>  <Centroid res>  (123) 
nan

>  <Quatassemblies short tag>  (123) 
nan

>  <observation_longname>  (123) 
nan

>  <name>  (123) 
ZTGZMPJKZODOKZ-OUCADQQQSA-N

>  <CanonSites upload name>  (123) 
nan

>  <tags>  (123) 
[]

>  <energy_score>  (123) 
-67.926096

>  <original SMILES>  (123) 
C[C@H]1C[C@@H](C(N)=O)CN(C(=O)[C@@H]2CCSc3ccccc32)C1

>  <ref_mols>  (123) 
A4386a

>  <Pose>  (123) 
nan

>  <distance_score>  (123) 
1.093328

>  <ConformerSites upload name>  (123) 
nan

>  <HIPPO Pose ID>  (123) 
209256

>  <Crystalforms alias>  (123) 
nan

>  <original ID>  (123) 
ZTGZMPJKZODOKZ-OUCADQQQSA-N

>  <CanonSites alias>  (123) 
nan

>  <CrystalformSites alias>  (123) 
nan

>  <ref_pdb>  (123) 
A4386a

>  <CanonSites short tag>  (123) 
nan

>  <Quatassemblies alias>  (123) 
nan

>  <HIPPO Compound ID>  (123) 
123149

>  <CrystalformSites short tag>  (123) 
nan

$$$$
PSAGHVQLKXCCTK-LBPRGKRZSA-N
     RDKit          3D

 22 23  0  0  0  0  0  0  0  0999 V2000
    9.0425    9.7871   23.8037 C   0  0  0  0  0  0  0  0  0  0  0  0
    8.5605   11.4355   24.2445 S   0  0  0  0  0  0  0  0  0  0  0  0
    9.7073   12.0603   24.8761 O   0  0  0  0  0  0  0  0  0  0  0  0
    7.9397   12.0273   23.0819 O   0  0  0  0  0  0  0  0  0  0  0  0
    7.2725   11.3313   25.4726 C   0  0  0  0  0  0  0  0  0  0  0  0
    6.7159   10.0841   25.7891 C   0  0  0  0  0  0  0  0  0  0  0  0
    5.6614    9.9942   26.6984 C   0  0  0  0  0  0  0  0  0  0  0  0
    5.1552   11.1433   27.2921 C   0  0  0  0  0  0  0  0  0  0  0  0
    5.7097   12.3850   26.9883 C   0  0  0  0  0  0  0  0  0  0  0  0
    6.7841   12.5039   26.0879 C   0  0  0  0  0  0  0  0  0  0  0  0
    7.3784   13.8808   25.8871 C   0  0  0  0  0  0  0  0  0  0  0  0
    7.0370   14.5866   24.5742 C   0  0  0  0  0  0  0  0  0  0  0  0
    5.9186   14.9618   24.3429 O   0  0  0  0  0  0  0  0  0  0  0  0
    8.2502   14.7591   23.8316 N   0  0  0  0  0  0  0  0  0  0  0  0
    8.9578   16.0107   24.2792 C   0  0  0  0  0  0  0  0  0  0  0  0
   10.4786   15.8663   24.2221 C   0  0  0  0  0  0  0  0  0  0  0  0
   10.9345   15.9317   22.7855 C   0  0  0  0  0  0  0  0  0  0  0  0
    9.9296   15.1884   21.9083 C   0  0  2  0  0  0  0  0  0  0  0  0
   10.0483   15.7696   20.4858 C   0  0  0  0  0  0  0  0  0  0  0  0
   10.6118   14.8129   19.5638 N   0  0  0  0  0  0  0  0  0  0  0  0
    9.7477   16.9195   20.3305 O   0  0  0  0  0  0  0  0  0  0  0  0
    8.4974   15.3732   22.4558 C   0  0  0  0  0  0  0  0  0  0  0  0
  1  2  1  0
  2  3  2  0
  2  4  2  0
  2  5  1  0
  5  6  2  0
  6  7  1  0
  7  8  2  0
  8  9  1  0
  9 10  2  0
 10 11  1  0
 11 12  1  0
 12 13  2  0
 12 14  1  0
 14 15  1  0
 15 16  1  0
 16 17  1  0
 17 18  1  0
 18 19  1  6
 19 20  1  0
 19 21  2  0
 18 22  1  0
 10  5  1  0
 22 14  1  0
M  END
>  <alias>  (124) 
None

>  <Experiment code>  (124) 
nan

>  <CrystalformSites upload name>  (124) 
nan

>  <inchikey>  (124) 
PSAGHVQLKXCCTK-LBPRGKRZSA-N

>  <Crystalforms upload name>  (124) 
nan

>  <Quatassemblies upload name>  (124) 
nan

>  <ConformerSites alias>  (124) 
nan

>  <ConformerSites short tag>  (124) 
nan

>  <Crystalforms short tag>  (124) 
nan

>  <Centroid res>  (124) 
nan

>  <Quatassemblies short tag>  (124) 
nan

>  <observation_longname>  (124) 
nan

>  <name>  (124) 
PSAGHVQLKXCCTK-LBPRGKRZSA-N

>  <CanonSites upload name>  (124) 
nan

>  <tags>  (124) 
[]

>  <energy_score>  (124) 
134.446358

>  <original SMILES>  (124) 
CS(=O)(=O)c1ccccc1CC(=O)N1CCC[C@H](C(N)=O)C1

>  <ref_mols>  (124) 
A4386a

>  <Pose>  (124) 
nan

>  <distance_score>  (124) 
1.162496

>  <ConformerSites upload name>  (124) 
nan

>  <HIPPO Pose ID>  (124) 
209948

>  <Crystalforms alias>  (124) 
nan

>  <original ID>  (124) 
PSAGHVQLKXCCTK-LBPRGKRZSA-N

>  <CanonSites alias>  (124) 
nan

>  <CrystalformSites alias>  (124) 
nan

>  <ref_pdb>  (124) 
A4386a

>  <CanonSites short tag>  (124) 
nan

>  <Quatassemblies alias>  (124) 
nan

>  <HIPPO Compound ID>  (124) 
123317

>  <CrystalformSites short tag>  (124) 
nan

$$$$
PSAGHVQLKXCCTK-GFCCVEGCSA-N
     RDKit          3D

 22 23  0  0  0  0  0  0  0  0999 V2000
    9.1762    9.6196   23.6988 C   0  0  0  0  0  0  0  0  0  0  0  0
    8.8121   11.3071   24.1028 S   0  0  0  0  0  0  0  0  0  0  0  0
    8.1682   11.9090   22.9632 O   0  0  0  0  0  0  0  0  0  0  0  0
   10.0021   11.9139   24.6649 O   0  0  0  0  0  0  0  0  0  0  0  0
    7.5470   11.3361   25.3485 C   0  0  0  0  0  0  0  0  0  0  0  0
    6.9476   10.1434   25.7725 C   0  0  0  0  0  0  0  0  0  0  0  0
    5.8682   10.1808   26.6551 C   0  0  0  0  0  0  0  0  0  0  0  0
    5.3856   11.4037   27.1100 C   0  0  0  0  0  0  0  0  0  0  0  0
    5.9809   12.5935   26.6872 C   0  0  0  0  0  0  0  0  0  0  0  0
    7.0739   12.5841   25.8045 C   0  0  0  0  0  0  0  0  0  0  0  0
    7.6914   13.9091   25.3991 C   0  0  0  0  0  0  0  0  0  0  0  0
    7.2497   14.4824   24.0439 C   0  0  0  0  0  0  0  0  0  0  0  0
    6.0842   14.6752   23.8171 O   0  0  0  0  0  0  0  0  0  0  0  0
    8.4190   14.7905   23.2618 N   0  0  0  0  0  0  0  0  0  0  0  0
    8.9336   16.1444   23.6233 C   0  0  0  0  0  0  0  0  0  0  0  0
   10.4749   16.1465   23.6143 C   0  0  0  0  0  0  0  0  0  0  0  0
   10.9918   15.7204   22.2498 C   0  0  0  0  0  0  0  0  0  0  0  0
    9.8583   16.0322   21.2981 C   0  0  1  0  0  0  0  0  0  0  0  0
   10.1814   15.9260   19.7903 C   0  0  0  0  0  0  0  0  0  0  0  0
   10.7098   14.6556   19.3851 N   0  0  0  0  0  0  0  0  0  0  0  0
   10.0238   16.9396   19.1696 O   0  0  0  0  0  0  0  0  0  0  0  0
    8.5536   15.3655   21.8211 C   0  0  0  0  0  0  0  0  0  0  0  0
  1  2  1  0
  2  3  2  0
  2  4  2  0
  2  5  1  0
  5  6  2  0
  6  7  1  0
  7  8  2  0
  8  9  1  0
  9 10  2  0
 10 11  1  0
 11 12  1  0
 12 13  2  0
 12 14  1  0
 14 15  1  0
 15 16  1  0
 16 17  1  0
 17 18  1  0
 18 19  1  6
 19 20  1  0
 19 21  2  0
 18 22  1  0
 10  5  1  0
 22 14  1  0
M  END
>  <alias>  (125) 
None

>  <Experiment code>  (125) 
nan

>  <CrystalformSites upload name>  (125) 
nan

>  <inchikey>  (125) 
PSAGHVQLKXCCTK-GFCCVEGCSA-N

>  <Crystalforms upload name>  (125) 
nan

>  <Quatassemblies upload name>  (125) 
nan

>  <ConformerSites alias>  (125) 
nan

>  <ConformerSites short tag>  (125) 
nan

>  <Crystalforms short tag>  (125) 
nan

>  <Centroid res>  (125) 
nan

>  <Quatassemblies short tag>  (125) 
nan

>  <observation_longname>  (125) 
nan

>  <name>  (125) 
PSAGHVQLKXCCTK-GFCCVEGCSA-N

>  <CanonSites upload name>  (125) 
nan

>  <tags>  (125) 
[]

>  <energy_score>  (125) 
-34.775544

>  <original SMILES>  (125) 
CS(=O)(=O)c1ccccc1CC(=O)N1CCC[C@@H](C(N)=O)C1

>  <ref_mols>  (125) 
A4386a

>  <Pose>  (125) 
nan

>  <distance_score>  (125) 
0.916269

>  <ConformerSites upload name>  (125) 
nan

>  <HIPPO Pose ID>  (125) 
209949

>  <Crystalforms alias>  (125) 
nan

>  <original ID>  (125) 
PSAGHVQLKXCCTK-GFCCVEGCSA-N

>  <CanonSites alias>  (125) 
nan

>  <CrystalformSites alias>  (125) 
nan

>  <ref_pdb>  (125) 
A4386a

>  <CanonSites short tag>  (125) 
nan

>  <Quatassemblies alias>  (125) 
nan

>  <HIPPO Compound ID>  (125) 
123317

>  <CrystalformSites short tag>  (125) 
nan

$$$$
WTYHUVHWKOLYLP-NEPJUHHUSA-N
     RDKit          3D

 22 24  0  0  0  0  0  0  0  0999 V2000
    9.0429    9.6729   23.6297 C   0  0  0  0  0  0  0  0  0  0  0  0
    8.8963   11.3925   24.0325 S   0  0  0  0  0  0  0  0  0  0  0  0
    8.2283   12.0869   22.9605 O   0  0  0  0  0  0  0  0  0  0  0  0
   10.2015   11.8137   24.5025 O   0  0  0  0  0  0  0  0  0  0  0  0
    7.7361   11.5711   25.3683 C   0  0  0  0  0  0  0  0  0  0  0  0
    6.9255   10.4893   25.7401 C   0  0  0  0  0  0  0  0  0  0  0  0
    5.8742   10.6851   26.6345 C   0  0  0  0  0  0  0  0  0  0  0  0
    5.6216   11.9577   27.1402 C   0  0  0  0  0  0  0  0  0  0  0  0
    6.4391   13.0333   26.7838 C   0  0  0  0  0  0  0  0  0  0  0  0
    7.5238   12.8588   25.9093 C   0  0  0  0  0  0  0  0  0  0  0  0
    8.4870   14.0079   25.7066 C   0  0  0  0  0  0  0  0  0  0  0  0
    8.0782   15.2272   24.8951 C   0  0  0  0  0  0  0  0  0  0  0  0
    7.3161   16.0133   25.3989 O   0  0  0  0  0  0  0  0  0  0  0  0
    8.7805   15.2780   23.6399 N   0  0  0  0  0  0  0  0  0  0  0  0
   10.1265   15.9209   23.8292 C   0  0  0  0  0  0  0  0  0  0  0  0
   11.2272   15.6783   22.7558 C   0  0  2  0  0  0  0  0  0  0  0  0
   11.0949   16.9046   21.8912 C   0  0  0  0  0  0  0  0  0  0  0  0
    9.7369   16.5235   21.3324 C   0  0  2  0  0  0  0  0  0  0  0  0
    8.6973   16.3050   22.4728 C   0  0  0  0  0  0  0  0  0  0  0  0
   10.1767   15.2148   20.7806 C   0  0  0  0  0  0  0  0  0  0  0  0
   10.0953   14.8682   19.6216 O   0  0  0  0  0  0  0  0  0  0  0  0
   10.9036   14.6249   21.8144 N   0  0  0  0  0  0  0  0  0  0  0  0
  1  2  1  0
  2  3  2  0
  2  4  2  0
  2  5  1  0
  5  6  2  0
  6  7  1  0
  7  8  2  0
  8  9  1  0
  9 10  2  0
 10 11  1  0
 11 12  1  0
 12 13  2  0
 12 14  1  0
 14 15  1  0
 16 15  1  1
 16 17  1  0
 17 18  1  0
 18 19  1  1
 18 20  1  0
 20 21  2  0
 20 22  1  0
 10  5  1  0
 19 14  1  0
 22 16  1  0
M  END
>  <alias>  (126) 
None

>  <Experiment code>  (126) 
nan

>  <CrystalformSites upload name>  (126) 
nan

>  <inchikey>  (126) 
WTYHUVHWKOLYLP-NEPJUHHUSA-N

>  <Crystalforms upload name>  (126) 
nan

>  <Quatassemblies upload name>  (126) 
nan

>  <ConformerSites alias>  (126) 
nan

>  <ConformerSites short tag>  (126) 
nan

>  <Crystalforms short tag>  (126) 
nan

>  <Centroid res>  (126) 
nan

>  <Quatassemblies short tag>  (126) 
nan

>  <observation_longname>  (126) 
nan

>  <name>  (126) 
WTYHUVHWKOLYLP-NEPJUHHUSA-N

>  <CanonSites upload name>  (126) 
nan

>  <tags>  (126) 
[]

>  <energy_score>  (126) 
-66.065772

>  <original SMILES>  (126) 
CS(=O)(=O)c1ccccc1CC(=O)N1C[C@@H]2C[C@H](C1)C(=O)N2

>  <ref_mols>  (126) 
A4386a

>  <Pose>  (126) 
nan

>  <distance_score>  (126) 
1.543468

>  <ConformerSites upload name>  (126) 
nan

>  <HIPPO Pose ID>  (126) 
210000

>  <Crystalforms alias>  (126) 
nan

>  <original ID>  (126) 
WTYHUVHWKOLYLP-NEPJUHHUSA-N

>  <CanonSites alias>  (126) 
nan

>  <CrystalformSites alias>  (126) 
nan

>  <ref_pdb>  (126) 
A4386a

>  <CanonSites short tag>  (126) 
nan

>  <Quatassemblies alias>  (126) 
nan

>  <HIPPO Compound ID>  (126) 
123327

>  <CrystalformSites short tag>  (126) 
nan

$$$$
WTYHUVHWKOLYLP-NWDGAFQWSA-N
     RDKit          3D

 22 24  0  0  0  0  0  0  0  0999 V2000
    8.7987    9.5083   24.0692 C   0  0  0  0  0  0  0  0  0  0  0  0
    8.4183   11.2098   24.3398 S   0  0  0  0  0  0  0  0  0  0  0  0
    8.0380   11.7494   23.0571 O   0  0  0  0  0  0  0  0  0  0  0  0
    9.5165   11.8148   25.0615 O   0  0  0  0  0  0  0  0  0  0  0  0
    7.0151   11.3664   25.4095 C   0  0  0  0  0  0  0  0  0  0  0  0
    6.6105   10.2531   26.1563 C   0  0  0  0  0  0  0  0  0  0  0  0
    5.6054   10.3750   27.1144 C   0  0  0  0  0  0  0  0  0  0  0  0
    5.0178   11.6131   27.3444 C   0  0  0  0  0  0  0  0  0  0  0  0
    5.3774   12.7129   26.5636 C   0  0  0  0  0  0  0  0  0  0  0  0
    6.3436   12.6029   25.5459 C   0  0  0  0  0  0  0  0  0  0  0  0
    6.4161   13.7393   24.5389 C   0  0  0  0  0  0  0  0  0  0  0  0
    7.2774   14.9670   24.8200 C   0  0  0  0  0  0  0  0  0  0  0  0
    7.2467   15.5241   25.8864 O   0  0  0  0  0  0  0  0  0  0  0  0
    7.9672   15.3110   23.6042 N   0  0  0  0  0  0  0  0  0  0  0  0
    9.3479   14.6602   23.5814 C   0  0  0  0  0  0  0  0  0  0  0  0
   10.0872   14.5048   22.2200 C   0  0  1  0  0  0  0  0  0  0  0  0
    9.2379   15.2069   21.1812 C   0  0  0  0  0  0  0  0  0  0  0  0
    9.3573   16.5914   21.8110 C   0  0  1  0  0  0  0  0  0  0  0  0
    8.7739   16.5271   23.2442 C   0  0  0  0  0  0  0  0  0  0  0  0
   10.8620   16.6373   21.9405 C   0  0  0  0  0  0  0  0  0  0  0  0
   11.6086   17.5840   21.8358 O   0  0  0  0  0  0  0  0  0  0  0  0
   11.2553   15.3460   22.2367 N   0  0  0  0  0  0  0  0  0  0  0  0
  1  2  1  0
  2  3  2  0
  2  4  2  0
  2  5  1  0
  5  6  2  0
  6  7  1  0
  7  8  2  0
  8  9  1  0
  9 10  2  0
 10 11  1  0
 11 12  1  0
 12 13  2  0
 12 14  1  0
 14 15  1  0
 16 15  1  1
 16 17  1  0
 17 18  1  0
 18 19  1  1
 18 20  1  0
 20 21  2  0
 20 22  1  0
 10  5  1  0
 19 14  1  0
 22 16  1  0
M  END
>  <alias>  (127) 
None

>  <Experiment code>  (127) 
nan

>  <CrystalformSites upload name>  (127) 
nan

>  <inchikey>  (127) 
WTYHUVHWKOLYLP-NWDGAFQWSA-N

>  <Crystalforms upload name>  (127) 
nan

>  <Quatassemblies upload name>  (127) 
nan

>  <ConformerSites alias>  (127) 
nan

>  <ConformerSites short tag>  (127) 
nan

>  <Crystalforms short tag>  (127) 
nan

>  <Centroid res>  (127) 
nan

>  <Quatassemblies short tag>  (127) 
nan

>  <observation_longname>  (127) 
nan

>  <name>  (127) 
WTYHUVHWKOLYLP-NWDGAFQWSA-N

>  <CanonSites upload name>  (127) 
nan

>  <tags>  (127) 
[]

>  <energy_score>  (127) 
27.386543

>  <original SMILES>  (127) 
CS(=O)(=O)c1ccccc1CC(=O)N1C[C@H]2C[C@@H](C1)C(=O)N2

>  <ref_mols>  (127) 
A4386a

>  <Pose>  (127) 
nan

>  <distance_score>  (127) 
1.97355

>  <ConformerSites upload name>  (127) 
nan

>  <HIPPO Pose ID>  (127) 
210001

>  <Crystalforms alias>  (127) 
nan

>  <original ID>  (127) 
WTYHUVHWKOLYLP-NWDGAFQWSA-N

>  <CanonSites alias>  (127) 
nan

>  <CrystalformSites alias>  (127) 
nan

>  <ref_pdb>  (127) 
A4386a

>  <CanonSites short tag>  (127) 
nan

>  <Quatassemblies alias>  (127) 
nan

>  <HIPPO Compound ID>  (127) 
123327

>  <CrystalformSites short tag>  (127) 
nan

$$$$
SRQVRMUCHBMAPS-JTQLQIEISA-N
     RDKit          3D

 21 22  0  0  0  0  0  0  0  0999 V2000
    9.2141    9.1599   23.5595 C   0  0  0  0  0  0  0  0  0  0  0  0
    9.0163   10.9306   23.9037 S   0  0  0  0  0  0  0  0  0  0  0  0
    7.6945   11.0372   25.1223 C   0  0  0  0  0  0  0  0  0  0  0  0
    6.9921    9.8953   25.5308 C   0  0  0  0  0  0  0  0  0  0  0  0
    5.9328    9.9726   26.4338 C   0  0  0  0  0  0  0  0  0  0  0  0
    5.5658   11.2004   26.9604 C   0  0  0  0  0  0  0  0  0  0  0  0
    6.2626   12.3531   26.5919 C   0  0  0  0  0  0  0  0  0  0  0  0
    5.6856   13.9657   27.4254 Br  0  0  0  0  0  0  0  0  0  0  0  0
    7.3406   12.2951   25.6790 C   0  0  0  0  0  0  0  0  0  0  0  0
    8.0830   13.5587   25.2799 C   0  0  0  0  0  0  0  0  0  0  0  0
    7.4879   14.2439   24.0468 C   0  0  0  0  0  0  0  0  0  0  0  0
    6.3090   14.4671   23.9771 O   0  0  0  0  0  0  0  0  0  0  0  0
    8.5495   14.5694   23.1474 N   0  0  0  0  0  0  0  0  0  0  0  0
    9.1458   15.9148   23.5079 C   0  0  0  0  0  0  0  0  0  0  0  0
   10.6549   15.9924   23.2409 C   0  0  0  0  0  0  0  0  0  0  0  0
   11.0296   15.2936   21.9471 C   0  0  0  0  0  0  0  0  0  0  0  0
    9.8445   15.3290   20.9944 C   0  0  2  0  0  0  0  0  0  0  0  0
    9.8358   16.6642   20.2337 C   0  0  0  0  0  0  0  0  0  0  0  0
   10.0519   16.5058   18.8110 N   0  0  0  0  0  0  0  0  0  0  0  0
    9.6827   17.6529   20.8945 O   0  0  0  0  0  0  0  0  0  0  0  0
    8.5196   15.1950   21.7754 C   0  0  0  0  0  0  0  0  0  0  0  0
  1  2  1  0
  2  3  1  0
  3  4  2  0
  4  5  1  0
  5  6  2  0
  6  7  1  0
  7  8  1  0
  7  9  2  0
  9 10  1  0
 10 11  1  0
 11 12  2  0
 11 13  1  0
 13 14  1  0
 14 15  1  0
 15 16  1  0
 16 17  1  0
 17 18  1  1
 18 19  1  0
 18 20  2  0
 17 21  1  0
  9  3  1  0
 21 13  1  0
M  END
>  <alias>  (128) 
None

>  <Experiment code>  (128) 
nan

>  <CrystalformSites upload name>  (128) 
nan

>  <inchikey>  (128) 
SRQVRMUCHBMAPS-JTQLQIEISA-N

>  <Crystalforms upload name>  (128) 
nan

>  <Quatassemblies upload name>  (128) 
nan

>  <ConformerSites alias>  (128) 
nan

>  <ConformerSites short tag>  (128) 
nan

>  <Crystalforms short tag>  (128) 
nan

>  <Centroid res>  (128) 
nan

>  <Quatassemblies short tag>  (128) 
nan

>  <observation_longname>  (128) 
nan

>  <name>  (128) 
SRQVRMUCHBMAPS-JTQLQIEISA-N

>  <CanonSites upload name>  (128) 
nan

>  <tags>  (128) 
['iter2']

>  <energy_score>  (128) 
162.457098

>  <original SMILES>  (128) 
CSc1cccc(Br)c1CC(=O)N1CCC[C@H](C(N)=O)C1

>  <ref_mols>  (128) 
A4386a

>  <Pose>  (128) 
nan

>  <distance_score>  (128) 
0.867511

>  <ConformerSites upload name>  (128) 
nan

>  <HIPPO Pose ID>  (128) 
292263

>  <Crystalforms alias>  (128) 
nan

>  <original ID>  (128) 
SRQVRMUCHBMAPS-JTQLQIEISA-N

>  <CanonSites alias>  (128) 
nan

>  <CrystalformSites alias>  (128) 
nan

>  <ref_pdb>  (128) 
A4386a

>  <CanonSites short tag>  (128) 
nan

>  <Quatassemblies alias>  (128) 
nan

>  <HIPPO Compound ID>  (128) 
122705

>  <CrystalformSites short tag>  (128) 
nan

$$$$
SRQVRMUCHBMAPS-SNVBAGLBSA-N
     RDKit          3D

 21 22  0  0  0  0  0  0  0  0999 V2000
    9.2433    8.9060   23.5221 C   0  0  0  0  0  0  0  0  0  0  0  0
    9.1703   10.6904   23.8023 S   0  0  0  0  0  0  0  0  0  0  0  0
    7.8338   10.9323   24.9779 C   0  0  0  0  0  0  0  0  0  0  0  0
    7.0940    9.8545   25.4802 C   0  0  0  0  0  0  0  0  0  0  0  0
    6.0319   10.0456   26.3622 C   0  0  0  0  0  0  0  0  0  0  0  0
    5.6955   11.3292   26.7634 C   0  0  0  0  0  0  0  0  0  0  0  0
    6.4267   12.4221   26.2907 C   0  0  0  0  0  0  0  0  0  0  0  0
    5.8719   14.1294   26.9256 Br  0  0  0  0  0  0  0  0  0  0  0  0
    7.5148   12.2447   25.4072 C   0  0  0  0  0  0  0  0  0  0  0  0
    8.3022   13.4351   24.8876 C   0  0  0  0  0  0  0  0  0  0  0  0
    7.7833   13.9741   23.5473 C   0  0  0  0  0  0  0  0  0  0  0  0
    6.6128   13.9377   23.2793 O   0  0  0  0  0  0  0  0  0  0  0  0
    8.8834   14.5518   22.8348 N   0  0  0  0  0  0  0  0  0  0  0  0
    9.1003   15.9750   23.2814 C   0  0  0  0  0  0  0  0  0  0  0  0
   10.6111   16.2661   23.3353 C   0  0  0  0  0  0  0  0  0  0  0  0
   11.2605   15.9426   21.9993 C   0  0  0  0  0  0  0  0  0  0  0  0
   10.1486   16.0400   20.9774 C   0  0  1  0  0  0  0  0  0  0  0  0
   10.5892   15.8424   19.5131 C   0  0  0  0  0  0  0  0  0  0  0  0
   11.1330   14.5415   19.2432 N   0  0  0  0  0  0  0  0  0  0  0  0
   10.4970   16.8102   18.8126 O   0  0  0  0  0  0  0  0  0  0  0  0
    8.9430   15.2047   21.4572 C   0  0  0  0  0  0  0  0  0  0  0  0
  1  2  1  0
  2  3  1  0
  3  4  2  0
  4  5  1  0
  5  6  2  0
  6  7  1  0
  7  8  1  0
  7  9  2  0
  9 10  1  0
 10 11  1  0
 11 12  2  0
 11 13  1  0
 13 14  1  0
 14 15  1  0
 15 16  1  0
 16 17  1  0
 17 18  1  6
 18 19  1  0
 18 20  2  0
 17 21  1  0
  9  3  1  0
 21 13  1  0
M  END
>  <alias>  (129) 
None

>  <Experiment code>  (129) 
nan

>  <CrystalformSites upload name>  (129) 
nan

>  <inchikey>  (129) 
SRQVRMUCHBMAPS-SNVBAGLBSA-N

>  <Crystalforms upload name>  (129) 
nan

>  <Quatassemblies upload name>  (129) 
nan

>  <ConformerSites alias>  (129) 
nan

>  <ConformerSites short tag>  (129) 
nan

>  <Crystalforms short tag>  (129) 
nan

>  <Centroid res>  (129) 
nan

>  <Quatassemblies short tag>  (129) 
nan

>  <observation_longname>  (129) 
nan

>  <name>  (129) 
SRQVRMUCHBMAPS-SNVBAGLBSA-N

>  <CanonSites upload name>  (129) 
nan

>  <tags>  (129) 
['iter2']

>  <energy_score>  (129) 
143.440184

>  <original SMILES>  (129) 
CSc1cccc(Br)c1CC(=O)N1CCC[C@@H](C(N)=O)C1

>  <ref_mols>  (129) 
A4386a

>  <Pose>  (129) 
nan

>  <distance_score>  (129) 
0.621743

>  <ConformerSites upload name>  (129) 
nan

>  <HIPPO Pose ID>  (129) 
292264

>  <Crystalforms alias>  (129) 
nan

>  <original ID>  (129) 
SRQVRMUCHBMAPS-SNVBAGLBSA-N

>  <CanonSites alias>  (129) 
nan

>  <CrystalformSites alias>  (129) 
nan

>  <ref_pdb>  (129) 
A4386a

>  <CanonSites short tag>  (129) 
nan

>  <Quatassemblies alias>  (129) 
nan

>  <HIPPO Compound ID>  (129) 
122705

>  <CrystalformSites short tag>  (129) 
nan

$$$$
YQNRLOFSQIVVPG-VHSXEESVSA-N
     RDKit          3D

 21 23  0  0  0  0  0  0  0  0999 V2000
    9.1706    9.0189   23.5440 C   0  0  0  0  0  0  0  0  0  0  0  0
    9.1237   10.7791   23.9633 S   0  0  0  0  0  0  0  0  0  0  0  0
    7.7180   10.9697   25.0726 C   0  0  0  0  0  0  0  0  0  0  0  0
    7.0308    9.8553   25.5698 C   0  0  0  0  0  0  0  0  0  0  0  0
    5.9388    9.9936   26.4246 C   0  0  0  0  0  0  0  0  0  0  0  0
    5.5177   11.2589   26.8025 C   0  0  0  0  0  0  0  0  0  0  0  0
    6.1856   12.3899   26.3260 C   0  0  0  0  0  0  0  0  0  0  0  0
    5.4966   14.0629   26.9174 Br  0  0  0  0  0  0  0  0  0  0  0  0
    7.3001   12.2693   25.4673 C   0  0  0  0  0  0  0  0  0  0  0  0
    8.0203   13.4987   24.9389 C   0  0  0  0  0  0  0  0  0  0  0  0
    7.7195   13.7902   23.4643 C   0  0  0  0  0  0  0  0  0  0  0  0
    6.6470   13.5424   22.9824 O   0  0  0  0  0  0  0  0  0  0  0  0
    8.8928   14.3523   22.8767 N   0  0  0  0  0  0  0  0  0  0  0  0
    8.8780   15.8804   23.0234 C   0  0  0  0  0  0  0  0  0  0  0  0
   10.2411   16.6212   22.8166 C   0  0  1  0  0  0  0  0  0  0  0  0
   11.2893   15.6075   22.4069 C   0  0  0  0  0  0  0  0  0  0  0  0
   10.6049   15.2278   21.1062 C   0  0  1  0  0  0  0  0  0  0  0  0
    9.1996   14.7088   21.4480 C   0  0  0  0  0  0  0  0  0  0  0  0
   10.3264   16.5851   20.5129 C   0  0  0  0  0  0  0  0  0  0  0  0
   10.1491   16.8591   19.3445 O   0  0  0  0  0  0  0  0  0  0  0  0
   10.1709   17.4162   21.6153 N   0  0  0  0  0  0  0  0  0  0  0  0
  1  2  1  0
  2  3  1  0
  3  4  2  0
  4  5  1  0
  5  6  2  0
  6  7  1  0
  7  8  1  0
  7  9  2  0
  9 10  1  0
 10 11  1  0
 11 12  2  0
 11 13  1  0
 13 14  1  0
 15 14  1  6
 15 16  1  0
 16 17  1  0
 17 18  1  1
 17 19  1  0
 19 20  2  0
 19 21  1  0
  9  3  1  0
 18 13  1  0
 21 15  1  0
M  END
>  <alias>  (130) 
None

>  <Experiment code>  (130) 
nan

>  <CrystalformSites upload name>  (130) 
nan

>  <inchikey>  (130) 
YQNRLOFSQIVVPG-VHSXEESVSA-N

>  <Crystalforms upload name>  (130) 
nan

>  <Quatassemblies upload name>  (130) 
nan

>  <ConformerSites alias>  (130) 
nan

>  <ConformerSites short tag>  (130) 
nan

>  <Crystalforms short tag>  (130) 
nan

>  <Centroid res>  (130) 
nan

>  <Quatassemblies short tag>  (130) 
nan

>  <observation_longname>  (130) 
nan

>  <name>  (130) 
YQNRLOFSQIVVPG-VHSXEESVSA-N

>  <CanonSites upload name>  (130) 
nan

>  <tags>  (130) 
['iter2']

>  <energy_score>  (130) 
1.875819

>  <original SMILES>  (130) 
CSc1cccc(Br)c1CC(=O)N1C[C@H]2C[C@@H](C1)C(=O)N2

>  <ref_mols>  (130) 
A4386a

>  <Pose>  (130) 
nan

>  <distance_score>  (130) 
1.092902

>  <ConformerSites upload name>  (130) 
nan

>  <HIPPO Pose ID>  (130) 
292269

>  <Crystalforms alias>  (130) 
nan

>  <original ID>  (130) 
YQNRLOFSQIVVPG-VHSXEESVSA-N

>  <CanonSites alias>  (130) 
nan

>  <CrystalformSites alias>  (130) 
nan

>  <ref_pdb>  (130) 
A4386a

>  <CanonSites short tag>  (130) 
nan

>  <Quatassemblies alias>  (130) 
nan

>  <HIPPO Compound ID>  (130) 
122702

>  <CrystalformSites short tag>  (130) 
nan

$$$$
YQNRLOFSQIVVPG-VHSXEESVSA-N
     RDKit          3D

 21 23  0  0  0  0  0  0  0  0999 V2000
    9.1881    9.0423   23.5476 C   0  0  0  0  0  0  0  0  0  0  0  0
    9.1086   10.8056   23.9551 S   0  0  0  0  0  0  0  0  0  0  0  0
    7.7053   10.9766   25.0704 C   0  0  0  0  0  0  0  0  0  0  0  0
    7.0310    9.8535   25.5652 C   0  0  0  0  0  0  0  0  0  0  0  0
    5.9385    9.9779   26.4218 C   0  0  0  0  0  0  0  0  0  0  0  0
    5.5040   11.2372   26.8043 C   0  0  0  0  0  0  0  0  0  0  0  0
    6.1595   12.3764   26.3311 C   0  0  0  0  0  0  0  0  0  0  0  0
    5.4533   14.0402   26.9291 Br  0  0  0  0  0  0  0  0  0  0  0  0
    7.2742   12.2702   25.4708 C   0  0  0  0  0  0  0  0  0  0  0  0
    7.9854   13.5080   24.9518 C   0  0  0  0  0  0  0  0  0  0  0  0
    7.6914   13.8052   23.4770 C   0  0  0  0  0  0  0  0  0  0  0  0
    6.6157   13.5773   22.9925 O   0  0  0  0  0  0  0  0  0  0  0  0
    8.8741   14.3524   22.8940 N   0  0  0  0  0  0  0  0  0  0  0  0
    8.8830   15.8779   23.0500 C   0  0  0  0  0  0  0  0  0  0  0  0
   10.2603   16.5953   22.8605 C   0  0  1  0  0  0  0  0  0  0  0  0
   11.2907   15.5686   22.4391 C   0  0  0  0  0  0  0  0  0  0  0  0
   10.6012   15.2172   21.1325 C   0  0  1  0  0  0  0  0  0  0  0  0
    9.1884   14.7131   21.4669 C   0  0  0  0  0  0  0  0  0  0  0  0
   10.3448   16.5866   20.5574 C   0  0  0  0  0  0  0  0  0  0  0  0
   10.1668   16.8806   19.3938 O   0  0  0  0  0  0  0  0  0  0  0  0
   10.2101   17.4081   21.6700 N   0  0  0  0  0  0  0  0  0  0  0  0
  1  2  1  0
  2  3  1  0
  3  4  2  0
  4  5  1  0
  5  6  2  0
  6  7  1  0
  7  8  1  0
  7  9  2  0
  9 10  1  0
 10 11  1  0
 11 12  2  0
 11 13  1  0
 13 14  1  0
 15 14  1  6
 15 16  1  0
 16 17  1  0
 17 18  1  1
 17 19  1  0
 19 20  2  0
 19 21  1  0
  9  3  1  0
 18 13  1  0
 21 15  1  0
M  END
>  <alias>  (131) 
None

>  <Experiment code>  (131) 
nan

>  <CrystalformSites upload name>  (131) 
nan

>  <inchikey>  (131) 
YQNRLOFSQIVVPG-VHSXEESVSA-N

>  <Crystalforms upload name>  (131) 
nan

>  <Quatassemblies upload name>  (131) 
nan

>  <ConformerSites alias>  (131) 
nan

>  <ConformerSites short tag>  (131) 
nan

>  <Crystalforms short tag>  (131) 
nan

>  <Centroid res>  (131) 
nan

>  <Quatassemblies short tag>  (131) 
nan

>  <observation_longname>  (131) 
nan

>  <name>  (131) 
YQNRLOFSQIVVPG-VHSXEESVSA-N

>  <CanonSites upload name>  (131) 
nan

>  <tags>  (131) 
['iter2']

>  <energy_score>  (131) 
-0.572095

>  <original SMILES>  (131) 
CSc1cccc(Br)c1CC(=O)N1C[C@H]2C[C@@H](C1)C(=O)N2

>  <ref_mols>  (131) 
A4386a

>  <Pose>  (131) 
nan

>  <distance_score>  (131) 
1.097573

>  <ConformerSites upload name>  (131) 
nan

>  <HIPPO Pose ID>  (131) 
292270

>  <Crystalforms alias>  (131) 
nan

>  <original ID>  (131) 
YQNRLOFSQIVVPG-VHSXEESVSA-N

>  <CanonSites alias>  (131) 
nan

>  <CrystalformSites alias>  (131) 
nan

>  <ref_pdb>  (131) 
A4386a

>  <CanonSites short tag>  (131) 
nan

>  <Quatassemblies alias>  (131) 
nan

>  <HIPPO Compound ID>  (131) 
122702

>  <CrystalformSites short tag>  (131) 
nan

$$$$
IQRUJMCPLXCOCF-LLVKDONJSA-N
     RDKit          3D

 21 22  0  0  0  0  0  0  0  0999 V2000
    9.4539   12.2038   23.0229 C   0  0  0  0  0  0  0  0  0  0  0  0
    9.5708   12.3736   24.7934 S   0  0  0  0  0  0  0  0  0  0  0  0
    7.9112   11.8517   25.2455 C   0  0  0  0  0  0  0  0  0  0  0  0
    7.5398   10.4966   25.2760 C   0  0  0  0  0  0  0  0  0  0  0  0
    8.5555    9.1404   24.4181 Br  0  0  0  0  0  0  0  0  0  0  0  0
    6.3631   10.0969   25.9164 C   0  0  0  0  0  0  0  0  0  0  0  0
    5.5159   11.0445   26.4781 C   0  0  0  0  0  0  0  0  0  0  0  0
    5.8114   12.3966   26.3435 C   0  0  0  0  0  0  0  0  0  0  0  0
    7.0009   12.8172   25.7235 C   0  0  0  0  0  0  0  0  0  0  0  0
    7.2507   14.3012   25.5956 C   0  0  0  0  0  0  0  0  0  0  0  0
    7.0422   14.8798   24.1827 C   0  0  0  0  0  0  0  0  0  0  0  0
    5.9363   15.1800   23.8160 O   0  0  0  0  0  0  0  0  0  0  0  0
    8.3156   15.0509   23.5430 N   0  0  0  0  0  0  0  0  0  0  0  0
    8.9121   16.3439   23.9401 C   0  0  0  0  0  0  0  0  0  0  0  0
   10.4303   16.1824   24.1311 C   0  0  0  0  0  0  0  0  0  0  0  0
   11.0704   15.7732   22.8206 C   0  0  0  0  0  0  0  0  0  0  0  0
   10.0820   16.1702   21.7441 C   0  0  1  0  0  0  0  0  0  0  0  0
   10.5587   15.8031   20.3300 C   0  0  0  0  0  0  0  0  0  0  0  0
    9.9248   16.6526   19.3417 N   0  0  0  0  0  0  0  0  0  0  0  0
   11.3305   14.8979   20.1990 O   0  0  0  0  0  0  0  0  0  0  0  0
    8.6780   15.5754   22.1130 C   0  0  0  0  0  0  0  0  0  0  0  0
  1  2  1  0
  2  3  1  0
  3  4  2  0
  4  5  1  0
  4  6  1  0
  6  7  2  0
  7  8  1  0
  8  9  2  0
  9 10  1  0
 10 11  1  0
 11 12  2  0
 11 13  1  0
 13 14  1  0
 14 15  1  0
 15 16  1  0
 16 17  1  0
 17 18  1  6
 18 19  1  0
 18 20  2  0
 17 21  1  0
  9  3  1  0
 21 13  1  0
M  END
>  <alias>  (132) 
None

>  <Experiment code>  (132) 
nan

>  <CrystalformSites upload name>  (132) 
nan

>  <inchikey>  (132) 
IQRUJMCPLXCOCF-LLVKDONJSA-N

>  <Crystalforms upload name>  (132) 
nan

>  <Quatassemblies upload name>  (132) 
nan

>  <ConformerSites alias>  (132) 
nan

>  <ConformerSites short tag>  (132) 
nan

>  <Crystalforms short tag>  (132) 
nan

>  <Centroid res>  (132) 
nan

>  <Quatassemblies short tag>  (132) 
nan

>  <observation_longname>  (132) 
nan

>  <name>  (132) 
IQRUJMCPLXCOCF-LLVKDONJSA-N

>  <CanonSites upload name>  (132) 
nan

>  <tags>  (132) 
['iter2']

>  <energy_score>  (132) 
182.685247

>  <original SMILES>  (132) 
CSc1c(Br)cccc1CC(=O)N1CCC[C@@H](C(N)=O)C1

>  <ref_mols>  (132) 
A4386a

>  <Pose>  (132) 
nan

>  <distance_score>  (132) 
1.433873

>  <ConformerSites upload name>  (132) 
nan

>  <HIPPO Pose ID>  (132) 
292273

>  <Crystalforms alias>  (132) 
nan

>  <original ID>  (132) 
IQRUJMCPLXCOCF-LLVKDONJSA-N

>  <CanonSites alias>  (132) 
nan

>  <CrystalformSites alias>  (132) 
nan

>  <ref_pdb>  (132) 
A4386a

>  <CanonSites short tag>  (132) 
nan

>  <Quatassemblies alias>  (132) 
nan

>  <HIPPO Compound ID>  (132) 
122490

>  <CrystalformSites short tag>  (132) 
nan

$$$$
NNJBQLOPMCYGNX-MNOVXSKESA-N
     RDKit          3D

 21 23  0  0  0  0  0  0  0  0999 V2000
    7.8662    9.8317   24.6236 C   0  0  0  0  0  0  0  0  0  0  0  0
    8.1257   11.3635   25.5328 S   0  0  0  0  0  0  0  0  0  0  0  0
    6.4944   12.1060   25.6370 C   0  0  0  0  0  0  0  0  0  0  0  0
    5.4840   11.6587   26.5169 C   0  0  0  0  0  0  0  0  0  0  0  0
    5.5071   10.0048   27.4421 Br  0  0  0  0  0  0  0  0  0  0  0  0
    4.3326   12.4234   26.7536 C   0  0  0  0  0  0  0  0  0  0  0  0
    4.1515   13.6363   26.1101 C   0  0  0  0  0  0  0  0  0  0  0  0
    5.1028   14.0682   25.1976 C   0  0  0  0  0  0  0  0  0  0  0  0
    6.2642   13.3104   24.9348 C   0  0  0  0  0  0  0  0  0  0  0  0
    7.1840   13.8395   23.8549 C   0  0  0  0  0  0  0  0  0  0  0  0
    8.0532   15.0114   24.2989 C   0  0  0  0  0  0  0  0  0  0  0  0
    7.9425   15.5137   25.3853 O   0  0  0  0  0  0  0  0  0  0  0  0
    8.8640   15.3816   23.1835 N   0  0  0  0  0  0  0  0  0  0  0  0
   10.2219   14.6607   23.2576 C   0  0  0  0  0  0  0  0  0  0  0  0
   11.1098   14.6038   21.9837 C   0  0  2  0  0  0  0  0  0  0  0  0
   11.8457   15.9190   21.9345 C   0  0  0  0  0  0  0  0  0  0  0  0
   10.6062   16.7596   21.7154 C   0  0  2  0  0  0  0  0  0  0  0  0
    9.7470   16.5737   22.9704 C   0  0  0  0  0  0  0  0  0  0  0  0
   10.0393   16.0237   20.5268 C   0  0  0  0  0  0  0  0  0  0  0  0
    9.5346   16.4808   19.5240 O   0  0  0  0  0  0  0  0  0  0  0  0
   10.3042   14.6908   20.7988 N   0  0  0  0  0  0  0  0  0  0  0  0
  1  2  1  0
  2  3  1  0
  3  4  2  0
  4  5  1  0
  4  6  1  0
  6  7  2  0
  7  8  1  0
  8  9  2  0
  9 10  1  0
 10 11  1  0
 11 12  2  0
 11 13  1  0
 13 14  1  0
 15 14  1  1
 15 16  1  0
 16 17  1  0
 17 18  1  1
 17 19  1  0
 19 20  2  0
 19 21  1  0
  9  3  1  0
 18 13  1  0
 21 15  1  0
M  END
>  <alias>  (133) 
None

>  <Experiment code>  (133) 
nan

>  <CrystalformSites upload name>  (133) 
nan

>  <inchikey>  (133) 
NNJBQLOPMCYGNX-MNOVXSKESA-N

>  <Crystalforms upload name>  (133) 
nan

>  <Quatassemblies upload name>  (133) 
nan

>  <ConformerSites alias>  (133) 
nan

>  <ConformerSites short tag>  (133) 
nan

>  <Crystalforms short tag>  (133) 
nan

>  <Centroid res>  (133) 
nan

>  <Quatassemblies short tag>  (133) 
nan

>  <observation_longname>  (133) 
nan

>  <name>  (133) 
NNJBQLOPMCYGNX-MNOVXSKESA-N

>  <CanonSites upload name>  (133) 
nan

>  <tags>  (133) 
['iter2']

>  <energy_score>  (133) 
31.48075

>  <original SMILES>  (133) 
CSc1c(Br)cccc1CC(=O)N1C[C@@H]2C[C@H](C1)C(=O)N2

>  <ref_mols>  (133) 
A4386a

>  <Pose>  (133) 
nan

>  <distance_score>  (133) 
2.061316

>  <ConformerSites upload name>  (133) 
nan

>  <HIPPO Pose ID>  (133) 
292276

>  <Crystalforms alias>  (133) 
nan

>  <original ID>  (133) 
NNJBQLOPMCYGNX-MNOVXSKESA-N

>  <CanonSites alias>  (133) 
nan

>  <CrystalformSites alias>  (133) 
nan

>  <ref_pdb>  (133) 
A4386a

>  <CanonSites short tag>  (133) 
nan

>  <Quatassemblies alias>  (133) 
nan

>  <HIPPO Compound ID>  (133) 
122873

>  <CrystalformSites short tag>  (133) 
nan

$$$$
NNJBQLOPMCYGNX-WDEREUQCSA-N
     RDKit          3D

 21 23  0  0  0  0  0  0  0  0999 V2000
    8.0390   10.4583   24.3949 C   0  0  0  0  0  0  0  0  0  0  0  0
    8.1591   11.7839   25.6108 S   0  0  0  0  0  0  0  0  0  0  0  0
    6.4761   12.4050   25.7654 C   0  0  0  0  0  0  0  0  0  0  0  0
    5.4592   11.7058   26.4497 C   0  0  0  0  0  0  0  0  0  0  0  0
    5.6015    9.9171   27.0535 Br  0  0  0  0  0  0  0  0  0  0  0  0
    4.2279   12.3100   26.7392 C   0  0  0  0  0  0  0  0  0  0  0  0
    3.9681   13.6073   26.3301 C   0  0  0  0  0  0  0  0  0  0  0  0
    4.9409   14.3078   25.6317 C   0  0  0  0  0  0  0  0  0  0  0  0
    6.1958   13.7313   25.3484 C   0  0  0  0  0  0  0  0  0  0  0  0
    7.1869   14.5989   24.5968 C   0  0  0  0  0  0  0  0  0  0  0  0
    7.5938   14.0417   23.2310 C   0  0  0  0  0  0  0  0  0  0  0  0
    6.9792   13.1594   22.6905 O   0  0  0  0  0  0  0  0  0  0  0  0
    8.8108   14.6917   22.8551 N   0  0  0  0  0  0  0  0  0  0  0  0
    8.5008   15.9315   21.9860 C   0  0  0  0  0  0  0  0  0  0  0  0
    9.6015   16.9835   21.6578 C   0  0  1  0  0  0  0  0  0  0  0  0
   10.8597   16.5434   22.3683 C   0  0  0  0  0  0  0  0  0  0  0  0
   11.0289   15.2614   21.5671 C   0  0  1  0  0  0  0  0  0  0  0  0
    9.7641   14.4073   21.7349 C   0  0  0  0  0  0  0  0  0  0  0  0
   10.9246   15.8152   20.1636 C   0  0  0  0  0  0  0  0  0  0  0  0
   11.4628   15.4259   19.1494 O   0  0  0  0  0  0  0  0  0  0  0  0
   10.0096   16.8494   20.2779 N   0  0  0  0  0  0  0  0  0  0  0  0
  1  2  1  0
  2  3  1  0
  3  4  2  0
  4  5  1  0
  4  6  1  0
  6  7  2  0
  7  8  1  0
  8  9  2  0
  9 10  1  0
 10 11  1  0
 11 12  2  0
 11 13  1  0
 13 14  1  0
 15 14  1  6
 15 16  1  0
 16 17  1  0
 17 18  1  1
 17 19  1  0
 19 20  2  0
 19 21  1  0
  9  3  1  0
 18 13  1  0
 21 15  1  0
M  END
>  <alias>  (134) 
None

>  <Experiment code>  (134) 
nan

>  <CrystalformSites upload name>  (134) 
nan

>  <inchikey>  (134) 
NNJBQLOPMCYGNX-WDEREUQCSA-N

>  <Crystalforms upload name>  (134) 
nan

>  <Quatassemblies upload name>  (134) 
nan

>  <ConformerSites alias>  (134) 
nan

>  <ConformerSites short tag>  (134) 
nan

>  <Crystalforms short tag>  (134) 
nan

>  <Centroid res>  (134) 
nan

>  <Quatassemblies short tag>  (134) 
nan

>  <observation_longname>  (134) 
nan

>  <name>  (134) 
NNJBQLOPMCYGNX-WDEREUQCSA-N

>  <CanonSites upload name>  (134) 
nan

>  <tags>  (134) 
['iter2']

>  <energy_score>  (134) 
39.117928

>  <original SMILES>  (134) 
CSc1c(Br)cccc1CC(=O)N1C[C@H]2C[C@@H](C1)C(=O)N2

>  <ref_mols>  (134) 
A4386a

>  <Pose>  (134) 
nan

>  <distance_score>  (134) 
2.130249

>  <ConformerSites upload name>  (134) 
nan

>  <HIPPO Pose ID>  (134) 
292277

>  <Crystalforms alias>  (134) 
nan

>  <original ID>  (134) 
NNJBQLOPMCYGNX-WDEREUQCSA-N

>  <CanonSites alias>  (134) 
nan

>  <CrystalformSites alias>  (134) 
nan

>  <ref_pdb>  (134) 
A4386a

>  <CanonSites short tag>  (134) 
nan

>  <Quatassemblies alias>  (134) 
nan

>  <HIPPO Compound ID>  (134) 
122873

>  <CrystalformSites short tag>  (134) 
nan

$$$$
JYKYJMCCOZVCCX-ZDUSSCGKSA-N
     RDKit          3D

 21 22  0  0  0  0  0  0  0  0999 V2000
    9.9568    8.7261   23.5080 C   0  0  0  0  0  0  0  0  0  0  0  0
    8.6569    9.1426   24.1345 C   0  0  0  0  0  0  0  0  0  0  0  0
    8.5788   10.9391   24.3272 S   0  0  0  0  0  0  0  0  0  0  0  0
    7.2013   11.1783   25.4590 C   0  0  0  0  0  0  0  0  0  0  0  0
    6.4284   10.1111   25.9441 C   0  0  0  0  0  0  0  0  0  0  0  0
    5.3929   10.3087   26.8600 C   0  0  0  0  0  0  0  0  0  0  0  0
    5.0859   11.5908   27.2868 C   0  0  0  0  0  0  0  0  0  0  0  0
    5.8242   12.6683   26.8065 C   0  0  0  0  0  0  0  0  0  0  0  0
    6.8930   12.4787   25.9072 C   0  0  0  0  0  0  0  0  0  0  0  0
    7.6773   13.6996   25.4807 C   0  0  0  0  0  0  0  0  0  0  0  0
    7.3353   14.2465   24.0899 C   0  0  0  0  0  0  0  0  0  0  0  0
    6.1967   14.3869   23.7342 O   0  0  0  0  0  0  0  0  0  0  0  0
    8.5641   14.6027   23.4432 N   0  0  0  0  0  0  0  0  0  0  0  0
    8.9820   15.9975   23.8539 C   0  0  0  0  0  0  0  0  0  0  0  0
   10.5030   16.1231   23.9321 C   0  0  0  0  0  0  0  0  0  0  0  0
   11.0352   16.2874   22.5316 C   0  0  0  0  0  0  0  0  0  0  0  0
   10.3050   15.2977   21.6337 C   0  0  2  0  0  0  0  0  0  0  0  0
   10.3729   15.7825   20.1726 C   0  0  0  0  0  0  0  0  0  0  0  0
   10.7405   14.7093   19.2900 N   0  0  0  0  0  0  0  0  0  0  0  0
   10.1562   16.9379   19.9470 O   0  0  0  0  0  0  0  0  0  0  0  0
    8.8277   15.1675   22.0549 C   0  0  0  0  0  0  0  0  0  0  0  0
  1  2  1  0
  2  3  1  0
  3  4  1  0
  4  5  2  0
  5  6  1  0
  6  7  2  0
  7  8  1  0
  8  9  2  0
  9 10  1  0
 10 11  1  0
 11 12  2  0
 11 13  1  0
 13 14  1  0
 14 15  1  0
 15 16  1  0
 16 17  1  0
 17 18  1  6
 18 19  1  0
 18 20  2  0
 17 21  1  0
  9  4  1  0
 21 13  1  0
M  END
>  <alias>  (135) 
None

>  <Experiment code>  (135) 
nan

>  <CrystalformSites upload name>  (135) 
nan

>  <inchikey>  (135) 
JYKYJMCCOZVCCX-ZDUSSCGKSA-N

>  <Crystalforms upload name>  (135) 
nan

>  <Quatassemblies upload name>  (135) 
nan

>  <ConformerSites alias>  (135) 
nan

>  <ConformerSites short tag>  (135) 
nan

>  <Crystalforms short tag>  (135) 
nan

>  <Centroid res>  (135) 
nan

>  <Quatassemblies short tag>  (135) 
nan

>  <observation_longname>  (135) 
nan

>  <name>  (135) 
JYKYJMCCOZVCCX-ZDUSSCGKSA-N

>  <CanonSites upload name>  (135) 
nan

>  <tags>  (135) 
['iter2']

>  <energy_score>  (135) 
133.169932

>  <original SMILES>  (135) 
CCSc1ccccc1CC(=O)N1CCC[C@H](C(N)=O)C1

>  <ref_mols>  (135) 
A4386a

>  <Pose>  (135) 
nan

>  <distance_score>  (135) 
0.943049

>  <ConformerSites upload name>  (135) 
nan

>  <HIPPO Pose ID>  (135) 
292470

>  <Crystalforms alias>  (135) 
nan

>  <original ID>  (135) 
JYKYJMCCOZVCCX-ZDUSSCGKSA-N

>  <CanonSites alias>  (135) 
nan

>  <CrystalformSites alias>  (135) 
nan

>  <ref_pdb>  (135) 
A4386a

>  <CanonSites short tag>  (135) 
nan

>  <Quatassemblies alias>  (135) 
nan

>  <HIPPO Compound ID>  (135) 
122809

>  <CrystalformSites short tag>  (135) 
nan

$$$$
JYKYJMCCOZVCCX-CYBMUJFWSA-N
     RDKit          3D

 21 22  0  0  0  0  0  0  0  0999 V2000
    9.2530    8.5992   23.0705 C   0  0  0  0  0  0  0  0  0  0  0  0
    9.4848    9.5131   24.2350 C   0  0  0  0  0  0  0  0  0  0  0  0
    8.7520   11.1475   23.9748 S   0  0  0  0  0  0  0  0  0  0  0  0
    7.4284   11.2116   25.1837 C   0  0  0  0  0  0  0  0  0  0  0  0
    6.7394   10.0587   25.5871 C   0  0  0  0  0  0  0  0  0  0  0  0
    5.7076   10.1139   26.5262 C   0  0  0  0  0  0  0  0  0  0  0  0
    5.3266   11.3359   27.0604 C   0  0  0  0  0  0  0  0  0  0  0  0
    5.9806   12.4971   26.6561 C   0  0  0  0  0  0  0  0  0  0  0  0
    7.0371   12.4505   25.7254 C   0  0  0  0  0  0  0  0  0  0  0  0
    7.7401   13.7405   25.3774 C   0  0  0  0  0  0  0  0  0  0  0  0
    7.4070   14.3462   24.0068 C   0  0  0  0  0  0  0  0  0  0  0  0
    6.2712   14.5292   23.6582 O   0  0  0  0  0  0  0  0  0  0  0  0
    8.6448   14.6939   23.3707 N   0  0  0  0  0  0  0  0  0  0  0  0
    9.0918   16.0415   23.8262 C   0  0  0  0  0  0  0  0  0  0  0  0
   10.6167   16.0370   24.0087 C   0  0  0  0  0  0  0  0  0  0  0  0
   11.2820   15.6411   22.7022 C   0  0  0  0  0  0  0  0  0  0  0  0
   10.2828   15.9995   21.6221 C   0  0  1  0  0  0  0  0  0  0  0  0
   10.7701   15.6924   20.1952 C   0  0  0  0  0  0  0  0  0  0  0  0
   10.0283   16.4876   19.2324 N   0  0  0  0  0  0  0  0  0  0  0  0
   11.6403   14.8861   20.0341 O   0  0  0  0  0  0  0  0  0  0  0  0
    8.9264   15.3116   21.9800 C   0  0  0  0  0  0  0  0  0  0  0  0
  1  2  1  0
  2  3  1  0
  3  4  1  0
  4  5  2  0
  5  6  1  0
  6  7  2  0
  7  8  1  0
  8  9  2  0
  9 10  1  0
 10 11  1  0
 11 12  2  0
 11 13  1  0
 13 14  1  0
 14 15  1  0
 15 16  1  0
 16 17  1  0
 17 18  1  6
 18 19  1  0
 18 20  2  0
 17 21  1  0
  9  4  1  0
 21 13  1  0
M  END
>  <alias>  (136) 
None

>  <Experiment code>  (136) 
nan

>  <CrystalformSites upload name>  (136) 
nan

>  <inchikey>  (136) 
JYKYJMCCOZVCCX-CYBMUJFWSA-N

>  <Crystalforms upload name>  (136) 
nan

>  <Quatassemblies upload name>  (136) 
nan

>  <ConformerSites alias>  (136) 
nan

>  <ConformerSites short tag>  (136) 
nan

>  <Crystalforms short tag>  (136) 
nan

>  <Centroid res>  (136) 
nan

>  <Quatassemblies short tag>  (136) 
nan

>  <observation_longname>  (136) 
nan

>  <name>  (136) 
JYKYJMCCOZVCCX-CYBMUJFWSA-N

>  <CanonSites upload name>  (136) 
nan

>  <tags>  (136) 
['iter2']

>  <energy_score>  (136) 
-104.288597

>  <original SMILES>  (136) 
CCSc1ccccc1CC(=O)N1CCC[C@@H](C(N)=O)C1

>  <ref_mols>  (136) 
A4386a

>  <Pose>  (136) 
nan

>  <distance_score>  (136) 
0.903179

>  <ConformerSites upload name>  (136) 
nan

>  <HIPPO Pose ID>  (136) 
292471

>  <Crystalforms alias>  (136) 
nan

>  <original ID>  (136) 
JYKYJMCCOZVCCX-CYBMUJFWSA-N

>  <CanonSites alias>  (136) 
nan

>  <CrystalformSites alias>  (136) 
nan

>  <ref_pdb>  (136) 
A4386a

>  <CanonSites short tag>  (136) 
nan

>  <Quatassemblies alias>  (136) 
nan

>  <HIPPO Compound ID>  (136) 
122809

>  <CrystalformSites short tag>  (136) 
nan

$$$$
ROIJZOVRQUHLNA-OLZOCXBDSA-N
     RDKit          3D

 21 23  0  0  0  0  0  0  0  0999 V2000
    9.8331    8.4931   23.9349 C   0  0  0  0  0  0  0  0  0  0  0  0
    9.0952    9.5788   23.2171 C   0  0  0  0  0  0  0  0  0  0  0  0
    9.1354   11.1697   24.0796 S   0  0  0  0  0  0  0  0  0  0  0  0
    7.7168   11.1708   25.1759 C   0  0  0  0  0  0  0  0  0  0  0  0
    7.0360   10.0060   25.5507 C   0  0  0  0  0  0  0  0  0  0  0  0
    5.9451   10.0446   26.4250 C   0  0  0  0  0  0  0  0  0  0  0  0
    5.5168   11.2549   26.9491 C   0  0  0  0  0  0  0  0  0  0  0  0
    6.1784   12.4252   26.5944 C   0  0  0  0  0  0  0  0  0  0  0  0
    7.2817   12.3988   25.7176 C   0  0  0  0  0  0  0  0  0  0  0  0
    7.9056   13.7243   25.3272 C   0  0  0  0  0  0  0  0  0  0  0  0
    7.3029   14.2876   24.0387 C   0  0  0  0  0  0  0  0  0  0  0  0
    6.1090   14.3947   23.9408 O   0  0  0  0  0  0  0  0  0  0  0  0
    8.3473   14.6833   23.1467 N   0  0  0  0  0  0  0  0  0  0  0  0
    8.8043   16.0934   23.4759 C   0  0  0  0  0  0  0  0  0  0  0  0
   10.1703   16.5872   22.9322 C   0  0  2  0  0  0  0  0  0  0  0  0
    9.8403   17.1376   21.5661 C   0  0  0  0  0  0  0  0  0  0  0  0
    9.5049   15.7913   20.9585 C   0  0  2  0  0  0  0  0  0  0  0  0
    8.2844   15.2603   21.7431 C   0  0  0  0  0  0  0  0  0  0  0  0
   10.8037   15.1209   21.3134 C   0  0  0  0  0  0  0  0  0  0  0  0
   11.5881   14.5777   20.5618 O   0  0  0  0  0  0  0  0  0  0  0  0
   11.0763   15.5014   22.6280 N   0  0  0  0  0  0  0  0  0  0  0  0
  1  2  1  0
  2  3  1  0
  3  4  1  0
  4  5  2  0
  5  6  1  0
  6  7  2  0
  7  8  1  0
  8  9  2  0
  9 10  1  0
 10 11  1  0
 11 12  2  0
 11 13  1  0
 13 14  1  0
 15 14  1  6
 15 16  1  0
 16 17  1  0
 17 18  1  1
 17 19  1  0
 19 20  2  0
 19 21  1  0
  9  4  1  0
 18 13  1  0
 21 15  1  0
M  END
>  <alias>  (137) 
None

>  <Experiment code>  (137) 
nan

>  <CrystalformSites upload name>  (137) 
nan

>  <inchikey>  (137) 
ROIJZOVRQUHLNA-OLZOCXBDSA-N

>  <Crystalforms upload name>  (137) 
nan

>  <Quatassemblies upload name>  (137) 
nan

>  <ConformerSites alias>  (137) 
nan

>  <ConformerSites short tag>  (137) 
nan

>  <Crystalforms short tag>  (137) 
nan

>  <Centroid res>  (137) 
nan

>  <Quatassemblies short tag>  (137) 
nan

>  <observation_longname>  (137) 
nan

>  <name>  (137) 
ROIJZOVRQUHLNA-OLZOCXBDSA-N

>  <CanonSites upload name>  (137) 
nan

>  <tags>  (137) 
['iter2']

>  <energy_score>  (137) 
-59.908547

>  <original SMILES>  (137) 
CCSc1ccccc1CC(=O)N1C[C@@H]2C[C@H](C1)C(=O)N2

>  <ref_mols>  (137) 
A4386a

>  <Pose>  (137) 
nan

>  <distance_score>  (137) 
1.530092

>  <ConformerSites upload name>  (137) 
nan

>  <HIPPO Pose ID>  (137) 
292476

>  <Crystalforms alias>  (137) 
nan

>  <original ID>  (137) 
ROIJZOVRQUHLNA-OLZOCXBDSA-N

>  <CanonSites alias>  (137) 
nan

>  <CrystalformSites alias>  (137) 
nan

>  <ref_pdb>  (137) 
A4386a

>  <CanonSites short tag>  (137) 
nan

>  <Quatassemblies alias>  (137) 
nan

>  <HIPPO Compound ID>  (137) 
122810

>  <CrystalformSites short tag>  (137) 
nan

$$$$
ROIJZOVRQUHLNA-QWHCGFSZSA-N
     RDKit          3D

 21 23  0  0  0  0  0  0  0  0999 V2000
    8.9193    8.5411   23.7897 C   0  0  0  0  0  0  0  0  0  0  0  0
    9.5138    9.9128   23.7518 C   0  0  0  0  0  0  0  0  0  0  0  0
    8.4667   11.3897   23.8519 S   0  0  0  0  0  0  0  0  0  0  0  0
    7.4191   11.3285   25.2943 C   0  0  0  0  0  0  0  0  0  0  0  0
    6.7384   10.1664   25.6719 C   0  0  0  0  0  0  0  0  0  0  0  0
    5.8040   10.1638   26.7118 C   0  0  0  0  0  0  0  0  0  0  0  0
    5.5157   11.3404   27.3866 C   0  0  0  0  0  0  0  0  0  0  0  0
    6.1578   12.5178   27.0151 C   0  0  0  0  0  0  0  0  0  0  0  0
    7.1059   12.5318   25.9715 C   0  0  0  0  0  0  0  0  0  0  0  0
    7.7255   13.8702   25.6045 C   0  0  0  0  0  0  0  0  0  0  0  0
    7.1889   14.4732   24.3001 C   0  0  0  0  0  0  0  0  0  0  0  0
    6.0166   14.6918   24.1520 O   0  0  0  0  0  0  0  0  0  0  0  0
    8.2917   14.6654   23.4072 N   0  0  0  0  0  0  0  0  0  0  0  0
    8.8921   16.0545   23.6069 C   0  0  0  0  0  0  0  0  0  0  0  0
   10.3532   16.2669   23.1004 C   0  0  1  0  0  0  0  0  0  0  0  0
   10.7796   15.0077   22.3698 C   0  0  0  0  0  0  0  0  0  0  0  0
    9.7228   15.1271   21.2789 C   0  0  1  0  0  0  0  0  0  0  0  0
    8.3247   15.0989   21.9490 C   0  0  0  0  0  0  0  0  0  0  0  0
    9.9514   16.5579   20.8535 C   0  0  0  0  0  0  0  0  0  0  0  0
    9.7513   17.0480   19.7625 O   0  0  0  0  0  0  0  0  0  0  0  0
   10.3624   17.2110   22.0098 N   0  0  0  0  0  0  0  0  0  0  0  0
  1  2  1  0
  2  3  1  0
  3  4  1  0
  4  5  2  0
  5  6  1  0
  6  7  2  0
  7  8  1  0
  8  9  2  0
  9 10  1  0
 10 11  1  0
 11 12  2  0
 11 13  1  0
 13 14  1  0
 15 14  1  6
 15 16  1  0
 16 17  1  0
 17 18  1  1
 17 19  1  0
 19 20  2  0
 19 21  1  0
  9  4  1  0
 18 13  1  0
 21 15  1  0
M  END
>  <alias>  (138) 
None

>  <Experiment code>  (138) 
nan

>  <CrystalformSites upload name>  (138) 
nan

>  <inchikey>  (138) 
ROIJZOVRQUHLNA-QWHCGFSZSA-N

>  <Crystalforms upload name>  (138) 
nan

>  <Quatassemblies upload name>  (138) 
nan

>  <ConformerSites alias>  (138) 
nan

>  <ConformerSites short tag>  (138) 
nan

>  <Crystalforms short tag>  (138) 
nan

>  <Centroid res>  (138) 
nan

>  <Quatassemblies short tag>  (138) 
nan

>  <observation_longname>  (138) 
nan

>  <name>  (138) 
ROIJZOVRQUHLNA-QWHCGFSZSA-N

>  <CanonSites upload name>  (138) 
nan

>  <tags>  (138) 
['iter2']

>  <energy_score>  (138) 
-13.734597

>  <original SMILES>  (138) 
CCSc1ccccc1CC(=O)N1C[C@H]2C[C@@H](C1)C(=O)N2

>  <ref_mols>  (138) 
A4386a

>  <Pose>  (138) 
nan

>  <distance_score>  (138) 
1.370231

>  <ConformerSites upload name>  (138) 
nan

>  <HIPPO Pose ID>  (138) 
292477

>  <Crystalforms alias>  (138) 
nan

>  <original ID>  (138) 
ROIJZOVRQUHLNA-QWHCGFSZSA-N

>  <CanonSites alias>  (138) 
nan

>  <CrystalformSites alias>  (138) 
nan

>  <ref_pdb>  (138) 
A4386a

>  <CanonSites short tag>  (138) 
nan

>  <Quatassemblies alias>  (138) 
nan

>  <HIPPO Compound ID>  (138) 
122810

>  <CrystalformSites short tag>  (138) 
nan

$$$$
FSXIUBBLTJPOEQ-LAJNKCICSA-N
     RDKit          3D

 21 22  0  0  0  0  0  0  0  0999 V2000
    8.7330    9.0994   24.0020 C   0  0  0  0  0  0  0  0  0  0  0  0
    8.7086   10.8216   24.4823 S   0  0  0  0  0  3  0  0  0  0  0  0
    8.6637   11.7296   23.1221 O   0  0  0  0  0  1  0  0  0  0  0  0
    7.1731   11.0816   25.4155 C   0  0  0  0  0  0  0  0  0  0  0  0
    6.6424   10.0148   26.1514 C   0  0  0  0  0  0  0  0  0  0  0  0
    5.6344   10.2007   27.1011 C   0  0  0  0  0  0  0  0  0  0  0  0
    5.1528   11.4754   27.3552 C   0  0  0  0  0  0  0  0  0  0  0  0
    5.6075   12.5441   26.5889 C   0  0  0  0  0  0  0  0  0  0  0  0
    6.5685   12.3574   25.5720 C   0  0  0  0  0  0  0  0  0  0  0  0
    6.6049   13.4352   24.5102 C   0  0  0  0  0  0  0  0  0  0  0  0
    7.2763   14.7899   24.6940 C   0  0  0  0  0  0  0  0  0  0  0  0
    6.7985   15.6518   25.3835 O   0  0  0  0  0  0  0  0  0  0  0  0
    8.4257   14.8079   23.8499 N   0  0  0  0  0  0  0  0  0  0  0  0
    9.6585   14.3670   24.6344 C   0  0  0  0  0  0  0  0  0  0  0  0
   10.9733   14.0394   23.9064 C   0  0  0  0  0  0  0  0  0  0  0  0
   10.7917   14.1854   22.4152 C   0  0  0  0  0  0  0  0  0  0  0  0
   10.0171   15.4712   22.1452 C   0  0  2  0  0  0  0  0  0  0  0  0
   10.9407   16.4892   21.4965 C   0  0  0  0  0  0  0  0  0  0  0  0
   11.1829   16.1315   20.1077 N   0  0  0  0  0  0  0  0  0  0  0  0
   11.3663   17.3946   22.1535 O   0  0  0  0  0  0  0  0  0  0  0  0
    9.3431   15.9341   23.4604 C   0  0  0  0  0  0  0  0  0  0  0  0
  2  1  1  6
  2  3  1  0
  2  4  1  0
  4  5  2  0
  5  6  1  0
  6  7  2  0
  7  8  1  0
  8  9  2  0
  9 10  1  0
 10 11  1  0
 11 12  2  0
 11 13  1  0
 13 14  1  0
 14 15  1  0
 15 16  1  0
 16 17  1  0
 17 18  1  1
 18 19  1  0
 18 20  2  0
 17 21  1  0
  9  4  1  0
 21 13  1  0
M  CHG  2   2   1   3  -1
M  END
>  <alias>  (139) 
None

>  <Experiment code>  (139) 
nan

>  <CrystalformSites upload name>  (139) 
nan

>  <inchikey>  (139) 
FSXIUBBLTJPOEQ-LAJNKCICSA-N

>  <Crystalforms upload name>  (139) 
nan

>  <Quatassemblies upload name>  (139) 
nan

>  <ConformerSites alias>  (139) 
nan

>  <ConformerSites short tag>  (139) 
nan

>  <Crystalforms short tag>  (139) 
nan

>  <Centroid res>  (139) 
nan

>  <Quatassemblies short tag>  (139) 
nan

>  <observation_longname>  (139) 
nan

>  <name>  (139) 
FSXIUBBLTJPOEQ-LAJNKCICSA-N

>  <CanonSites upload name>  (139) 
nan

>  <tags>  (139) 
['iter2']

>  <energy_score>  (139) 
146.472197

>  <original SMILES>  (139) 
C[S@@+]([O-])c1ccccc1CC(=O)N1CCC[C@H](C(N)=O)C1

>  <ref_mols>  (139) 
A4386a

>  <Pose>  (139) 
nan

>  <distance_score>  (139) 
1.6458

>  <ConformerSites upload name>  (139) 
nan

>  <HIPPO Pose ID>  (139) 
292593

>  <Crystalforms alias>  (139) 
nan

>  <original ID>  (139) 
FSXIUBBLTJPOEQ-LAJNKCICSA-N

>  <CanonSites alias>  (139) 
nan

>  <CrystalformSites alias>  (139) 
nan

>  <ref_pdb>  (139) 
A4386a

>  <CanonSites short tag>  (139) 
nan

>  <Quatassemblies alias>  (139) 
nan

>  <HIPPO Compound ID>  (139) 
122686

>  <CrystalformSites short tag>  (139) 
nan

$$$$
FSXIUBBLTJPOEQ-LAJNKCICSA-N
     RDKit          3D

 21 22  0  0  0  0  0  0  0  0999 V2000
    9.0380    8.9167   23.6224 C   0  0  0  0  0  0  0  0  0  0  0  0
    9.1655   10.5784   24.2685 S   0  0  0  0  0  3  0  0  0  0  0  0
    9.1924   11.6432   23.0198 O   0  0  0  0  0  1  0  0  0  0  0  0
    7.6350   10.8468   25.1973 C   0  0  0  0  0  0  0  0  0  0  0  0
    6.8939    9.7562   25.6670 C   0  0  0  0  0  0  0  0  0  0  0  0
    5.7558    9.9227   26.4605 C   0  0  0  0  0  0  0  0  0  0  0  0
    5.3304   11.1970   26.7982 C   0  0  0  0  0  0  0  0  0  0  0  0
    6.0496   12.2981   26.3480 C   0  0  0  0  0  0  0  0  0  0  0  0
    7.2144   12.1429   25.5671 C   0  0  0  0  0  0  0  0  0  0  0  0
    7.9597   13.4065   25.1953 C   0  0  0  0  0  0  0  0  0  0  0  0
    7.5329   14.0490   23.8713 C   0  0  0  0  0  0  0  0  0  0  0  0
    6.3804   14.1161   23.5396 O   0  0  0  0  0  0  0  0  0  0  0  0
    8.7127   14.5475   23.2370 N   0  0  0  0  0  0  0  0  0  0  0  0
    9.0212   15.9438   23.7352 C   0  0  0  0  0  0  0  0  0  0  0  0
   10.5266   16.2187   23.7683 C   0  0  0  0  0  0  0  0  0  0  0  0
   10.9959   16.4845   22.3579 C   0  0  0  0  0  0  0  0  0  0  0  0
   10.3687   15.4185   21.4770 C   0  0  2  0  0  0  0  0  0  0  0  0
   10.4392   15.8107   19.9937 C   0  0  0  0  0  0  0  0  0  0  0  0
   10.6761   14.6501   19.1802 N   0  0  0  0  0  0  0  0  0  0  0  0
   10.3335   16.9633   19.6940 O   0  0  0  0  0  0  0  0  0  0  0  0
    8.9035   15.2180   21.8943 C   0  0  0  0  0  0  0  0  0  0  0  0
  2  1  1  6
  2  3  1  0
  2  4  1  0
  4  5  2  0
  5  6  1  0
  6  7  2  0
  7  8  1  0
  8  9  2  0
  9 10  1  0
 10 11  1  0
 11 12  2  0
 11 13  1  0
 13 14  1  0
 14 15  1  0
 15 16  1  0
 16 17  1  0
 17 18  1  6
 18 19  1  0
 18 20  2  0
 17 21  1  0
  9  4  1  0
 21 13  1  0
M  CHG  2   2   1   3  -1
M  END
>  <alias>  (140) 
None

>  <Experiment code>  (140) 
nan

>  <CrystalformSites upload name>  (140) 
nan

>  <inchikey>  (140) 
FSXIUBBLTJPOEQ-LAJNKCICSA-N

>  <Crystalforms upload name>  (140) 
nan

>  <Quatassemblies upload name>  (140) 
nan

>  <ConformerSites alias>  (140) 
nan

>  <ConformerSites short tag>  (140) 
nan

>  <Crystalforms short tag>  (140) 
nan

>  <Centroid res>  (140) 
nan

>  <Quatassemblies short tag>  (140) 
nan

>  <observation_longname>  (140) 
nan

>  <name>  (140) 
FSXIUBBLTJPOEQ-LAJNKCICSA-N

>  <CanonSites upload name>  (140) 
nan

>  <tags>  (140) 
['iter2']

>  <energy_score>  (140) 
169.90066

>  <original SMILES>  (140) 
C[S@@+]([O-])c1ccccc1CC(=O)N1CCC[C@H](C(N)=O)C1

>  <ref_mols>  (140) 
A4386a

>  <Pose>  (140) 
nan

>  <distance_score>  (140) 
0.65353

>  <ConformerSites upload name>  (140) 
nan

>  <HIPPO Pose ID>  (140) 
292594

>  <Crystalforms alias>  (140) 
nan

>  <original ID>  (140) 
FSXIUBBLTJPOEQ-LAJNKCICSA-N

>  <CanonSites alias>  (140) 
nan

>  <CrystalformSites alias>  (140) 
nan

>  <ref_pdb>  (140) 
A4386a

>  <CanonSites short tag>  (140) 
nan

>  <Quatassemblies alias>  (140) 
nan

>  <HIPPO Compound ID>  (140) 
122686

>  <CrystalformSites short tag>  (140) 
nan

$$$$
FSXIUBBLTJPOEQ-GTJPDFRWSA-N
     RDKit          3D

 21 22  0  0  0  0  0  0  0  0999 V2000
    9.2941    9.3898   23.6284 C   0  0  0  0  0  0  0  0  0  0  0  0
    8.8788   11.1319   23.8008 S   0  0  0  0  0  3  0  0  0  0  0  0
   10.1743   11.9288   24.4565 O   0  0  0  0  0  1  0  0  0  0  0  0
    7.5732   11.1350   25.0663 C   0  0  0  0  0  0  0  0  0  0  0  0
    6.9683    9.9486   25.5083 C   0  0  0  0  0  0  0  0  0  0  0  0
    5.9120    9.9642   26.4245 C   0  0  0  0  0  0  0  0  0  0  0  0
    5.4392   11.1687   26.9203 C   0  0  0  0  0  0  0  0  0  0  0  0
    6.0308   12.3563   26.5066 C   0  0  0  0  0  0  0  0  0  0  0  0
    7.1032   12.3585   25.5908 C   0  0  0  0  0  0  0  0  0  0  0  0
    7.7307   13.6931   25.2651 C   0  0  0  0  0  0  0  0  0  0  0  0
    7.4096   14.2923   23.8919 C   0  0  0  0  0  0  0  0  0  0  0  0
    6.2744   14.4488   23.5285 O   0  0  0  0  0  0  0  0  0  0  0  0
    8.6439   14.6692   23.2746 N   0  0  0  0  0  0  0  0  0  0  0  0
    9.0543   16.0285   23.7382 C   0  0  0  0  0  0  0  0  0  0  0  0
   10.5812   16.0528   23.9347 C   0  0  0  0  0  0  0  0  0  0  0  0
   11.2682   15.6620   22.6359 C   0  0  0  0  0  0  0  0  0  0  0  0
   10.2737   16.0119   21.5511 C   0  0  1  0  0  0  0  0  0  0  0  0
   10.7581   15.7187   20.1220 C   0  0  0  0  0  0  0  0  0  0  0  0
   10.0430   16.5567   19.1742 N   0  0  0  0  0  0  0  0  0  0  0  0
   11.5834   14.8703   19.9433 O   0  0  0  0  0  0  0  0  0  0  0  0
    8.9292   15.2946   21.8914 C   0  0  0  0  0  0  0  0  0  0  0  0
  2  1  1  1
  2  3  1  0
  2  4  1  0
  4  5  2  0
  5  6  1  0
  6  7  2  0
  7  8  1  0
  8  9  2  0
  9 10  1  0
 10 11  1  0
 11 12  2  0
 11 13  1  0
 13 14  1  0
 14 15  1  0
 15 16  1  0
 16 17  1  0
 17 18  1  6
 18 19  1  0
 18 20  2  0
 17 21  1  0
  9  4  1  0
 21 13  1  0
M  CHG  2   2   1   3  -1
M  END
>  <alias>  (141) 
None

>  <Experiment code>  (141) 
nan

>  <CrystalformSites upload name>  (141) 
nan

>  <inchikey>  (141) 
FSXIUBBLTJPOEQ-GTJPDFRWSA-N

>  <Crystalforms upload name>  (141) 
nan

>  <Quatassemblies upload name>  (141) 
nan

>  <ConformerSites alias>  (141) 
nan

>  <ConformerSites short tag>  (141) 
nan

>  <Crystalforms short tag>  (141) 
nan

>  <Centroid res>  (141) 
nan

>  <Quatassemblies short tag>  (141) 
nan

>  <observation_longname>  (141) 
nan

>  <name>  (141) 
FSXIUBBLTJPOEQ-GTJPDFRWSA-N

>  <CanonSites upload name>  (141) 
nan

>  <tags>  (141) 
['iter2']

>  <energy_score>  (141) 
92.153673

>  <original SMILES>  (141) 
C[S@+]([O-])c1ccccc1CC(=O)N1CCC[C@@H](C(N)=O)C1

>  <ref_mols>  (141) 
A4386a

>  <Pose>  (141) 
nan

>  <distance_score>  (141) 
0.809884

>  <ConformerSites upload name>  (141) 
nan

>  <HIPPO Pose ID>  (141) 
292595

>  <Crystalforms alias>  (141) 
nan

>  <original ID>  (141) 
FSXIUBBLTJPOEQ-GTJPDFRWSA-N

>  <CanonSites alias>  (141) 
nan

>  <CrystalformSites alias>  (141) 
nan

>  <ref_pdb>  (141) 
A4386a

>  <CanonSites short tag>  (141) 
nan

>  <Quatassemblies alias>  (141) 
nan

>  <HIPPO Compound ID>  (141) 
122686

>  <CrystalformSites short tag>  (141) 
nan

$$$$
FSXIUBBLTJPOEQ-XUSGNXJCSA-N
     RDKit          3D

 21 22  0  0  0  0  0  0  0  0999 V2000
    8.3598    9.9110   24.3917 C   0  0  0  0  0  0  0  0  0  0  0  0
    8.4410   11.6960   24.2753 S   0  0  0  0  0  3  0  0  0  0  0  0
    7.5334   12.2054   22.9930 O   0  0  0  0  0  1  0  0  0  0  0  0
    7.4832   12.2834   25.6850 C   0  0  0  0  0  0  0  0  0  0  0  0
    6.3428   11.5887   26.1152 C   0  0  0  0  0  0  0  0  0  0  0  0
    5.5073   12.1185   27.0969 C   0  0  0  0  0  0  0  0  0  0  0  0
    5.7836   13.3674   27.6380 C   0  0  0  0  0  0  0  0  0  0  0  0
    6.9085   14.0768   27.2177 C   0  0  0  0  0  0  0  0  0  0  0  0
    7.7877   13.5411   26.2580 C   0  0  0  0  0  0  0  0  0  0  0  0
    9.0771   14.2992   25.9747 C   0  0  0  0  0  0  0  0  0  0  0  0
    9.0444   15.3468   24.8678 C   0  0  0  0  0  0  0  0  0  0  0  0
    9.1541   16.5131   25.1468 O   0  0  0  0  0  0  0  0  0  0  0  0
    8.9033   14.7056   23.6037 N   0  0  0  0  0  0  0  0  0  0  0  0
   10.2710   14.3390   23.0408 C   0  0  0  0  0  0  0  0  0  0  0  0
   11.3571   15.4133   22.9951 C   0  0  0  0  0  0  0  0  0  0  0  0
   10.8159   16.7211   22.4800 C   0  0  0  0  0  0  0  0  0  0  0  0
    9.5590   16.4736   21.6755 C   0  0  1  0  0  0  0  0  0  0  0  0
    9.9942   16.1626   20.2271 C   0  0  0  0  0  0  0  0  0  0  0  0
    9.8151   17.2933   19.3619 N   0  0  0  0  0  0  0  0  0  0  0  0
   10.4571   15.0811   20.0097 O   0  0  0  0  0  0  0  0  0  0  0  0
    8.7322   15.2819   22.2164 C   0  0  0  0  0  0  0  0  0  0  0  0
  2  1  1  1
  2  3  1  0
  2  4  1  0
  4  5  2  0
  5  6  1  0
  6  7  2  0
  7  8  1  0
  8  9  2  0
  9 10  1  0
 10 11  1  0
 11 12  2  0
 11 13  1  0
 13 14  1  0
 14 15  1  0
 15 16  1  0
 16 17  1  0
 17 18  1  6
 18 19  1  0
 18 20  2  0
 17 21  1  0
  9  4  1  0
 21 13  1  0
M  CHG  2   2   1   3  -1
M  END
>  <alias>  (142) 
None

>  <Experiment code>  (142) 
nan

>  <CrystalformSites upload name>  (142) 
nan

>  <inchikey>  (142) 
FSXIUBBLTJPOEQ-XUSGNXJCSA-N

>  <Crystalforms upload name>  (142) 
nan

>  <Quatassemblies upload name>  (142) 
nan

>  <ConformerSites alias>  (142) 
nan

>  <ConformerSites short tag>  (142) 
nan

>  <Crystalforms short tag>  (142) 
nan

>  <Centroid res>  (142) 
nan

>  <Quatassemblies short tag>  (142) 
nan

>  <observation_longname>  (142) 
nan

>  <name>  (142) 
FSXIUBBLTJPOEQ-XUSGNXJCSA-N

>  <CanonSites upload name>  (142) 
nan

>  <tags>  (142) 
['iter2']

>  <energy_score>  (142) 
151.059161

>  <original SMILES>  (142) 
C[S@@+]([O-])c1ccccc1CC(=O)N1CCC[C@@H](C(N)=O)C1

>  <ref_mols>  (142) 
A4386a

>  <Pose>  (142) 
nan

>  <distance_score>  (142) 
1.855223

>  <ConformerSites upload name>  (142) 
nan

>  <HIPPO Pose ID>  (142) 
292596

>  <Crystalforms alias>  (142) 
nan

>  <original ID>  (142) 
FSXIUBBLTJPOEQ-XUSGNXJCSA-N

>  <CanonSites alias>  (142) 
nan

>  <CrystalformSites alias>  (142) 
nan

>  <ref_pdb>  (142) 
A4386a

>  <CanonSites short tag>  (142) 
nan

>  <Quatassemblies alias>  (142) 
nan

>  <HIPPO Compound ID>  (142) 
122686

>  <CrystalformSites short tag>  (142) 
nan

$$$$
ABGYSGOHXUTZSE-SMDDFHAHSA-N
     RDKit          3D

 21 23  0  0  0  0  0  0  0  0999 V2000
    8.9874    8.6945   23.6788 C   0  0  0  0  0  0  0  0  0  0  0  0
    9.2961   10.3723   24.1735 S   0  0  0  0  0  3  0  0  0  0  0  0
    9.3713   11.3076   22.8283 O   0  0  0  0  0  1  0  0  0  0  0  0
    7.8243   10.9000   25.0870 C   0  0  0  0  0  0  0  0  0  0  0  0
    6.9373    9.9458   25.6076 C   0  0  0  0  0  0  0  0  0  0  0  0
    5.8413   10.3161   26.3849 C   0  0  0  0  0  0  0  0  0  0  0  0
    5.6128   11.6574   26.6508 C   0  0  0  0  0  0  0  0  0  0  0  0
    6.4888   12.6239   26.1559 C   0  0  0  0  0  0  0  0  0  0  0  0
    7.6067   12.2746   25.3732 C   0  0  0  0  0  0  0  0  0  0  0  0
    8.6320   13.3451   25.0319 C   0  0  0  0  0  0  0  0  0  0  0  0
    8.1767   14.7222   24.5369 C   0  0  0  0  0  0  0  0  0  0  0  0
    7.4045   15.3768   25.1877 O   0  0  0  0  0  0  0  0  0  0  0  0
    8.8841   15.0421   23.3270 N   0  0  0  0  0  0  0  0  0  0  0  0
   10.2233   15.6447   23.6583 C   0  0  0  0  0  0  0  0  0  0  0  0
   11.3220   15.5895   22.5700 C   0  0  2  0  0  0  0  0  0  0  0  0
   11.1723   16.9237   21.8877 C   0  0  0  0  0  0  0  0  0  0  0  0
    9.8188   16.6223   21.2715 C   0  0  2  0  0  0  0  0  0  0  0  0
    8.7968   16.2865   22.4030 C   0  0  0  0  0  0  0  0  0  0  0  0
   10.2222   15.3701   20.5636 C   0  0  0  0  0  0  0  0  0  0  0  0
    9.9947   15.0818   19.4093 O   0  0  0  0  0  0  0  0  0  0  0  0
   11.0152   14.6930   21.4811 N   0  0  0  0  0  0  0  0  0  0  0  0
  2  1  1  6
  2  3  1  0
  2  4  1  0
  4  5  2  0
  5  6  1  0
  6  7  2  0
  7  8  1  0
  8  9  2  0
  9 10  1  0
 10 11  1  0
 11 12  2  0
 11 13  1  0
 13 14  1  0
 15 14  1  1
 15 16  1  0
 16 17  1  0
 17 18  1  1
 17 19  1  0
 19 20  2  0
 19 21  1  0
  9  4  1  0
 18 13  1  0
 21 15  1  0
M  CHG  2   2   1   3  -1
M  END
>  <alias>  (143) 
None

>  <Experiment code>  (143) 
nan

>  <CrystalformSites upload name>  (143) 
nan

>  <inchikey>  (143) 
ABGYSGOHXUTZSE-SMDDFHAHSA-N

>  <Crystalforms upload name>  (143) 
nan

>  <Quatassemblies upload name>  (143) 
nan

>  <ConformerSites alias>  (143) 
nan

>  <ConformerSites short tag>  (143) 
nan

>  <Crystalforms short tag>  (143) 
nan

>  <Centroid res>  (143) 
nan

>  <Quatassemblies short tag>  (143) 
nan

>  <observation_longname>  (143) 
nan

>  <name>  (143) 
ABGYSGOHXUTZSE-SMDDFHAHSA-N

>  <CanonSites upload name>  (143) 
nan

>  <tags>  (143) 
['iter2']

>  <energy_score>  (143) 
12.917181

>  <original SMILES>  (143) 
C[S@@+]([O-])c1ccccc1CC(=O)N1C[C@@H]2C[C@H](C1)C(=O)N2

>  <ref_mols>  (143) 
A4386a

>  <Pose>  (143) 
nan

>  <distance_score>  (143) 
1.253174

>  <ConformerSites upload name>  (143) 
nan

>  <HIPPO Pose ID>  (143) 
292605

>  <Crystalforms alias>  (143) 
nan

>  <original ID>  (143) 
ABGYSGOHXUTZSE-SMDDFHAHSA-N

>  <CanonSites alias>  (143) 
nan

>  <CrystalformSites alias>  (143) 
nan

>  <ref_pdb>  (143) 
A4386a

>  <CanonSites short tag>  (143) 
nan

>  <Quatassemblies alias>  (143) 
nan

>  <HIPPO Compound ID>  (143) 
122711

>  <CrystalformSites short tag>  (143) 
nan

$$$$
ABGYSGOHXUTZSE-QLMNROTDSA-N
     RDKit          3D

 21 23  0  0  0  0  0  0  0  0999 V2000
    9.0060    8.8185   23.6568 C   0  0  0  0  0  0  0  0  0  0  0  0
    9.2031   10.4825   24.2685 S   0  0  0  0  0  3  0  0  0  0  0  0
    9.3081   11.5016   22.9925 O   0  0  0  0  0  1  0  0  0  0  0  0
    7.6737   10.8508   25.1622 C   0  0  0  0  0  0  0  0  0  0  0  0
    6.9092    9.8049   25.6957 C   0  0  0  0  0  0  0  0  0  0  0  0
    5.7841   10.0408   26.4884 C   0  0  0  0  0  0  0  0  0  0  0  0
    5.3956   11.3427   26.7604 C   0  0  0  0  0  0  0  0  0  0  0  0
    6.1328   12.4016   26.2382 C   0  0  0  0  0  0  0  0  0  0  0  0
    7.2818   12.1781   25.4500 C   0  0  0  0  0  0  0  0  0  0  0  0
    8.0223   13.4056   24.9484 C   0  0  0  0  0  0  0  0  0  0  0  0
    7.6666   13.8142   23.5140 C   0  0  0  0  0  0  0  0  0  0  0  0
    6.5713   13.6215   23.0577 O   0  0  0  0  0  0  0  0  0  0  0  0
    8.8410   14.3581   22.9103 N   0  0  0  0  0  0  0  0  0  0  0  0
    8.8844   15.8743   23.1130 C   0  0  0  0  0  0  0  0  0  0  0  0
   10.2705   16.5708   22.9028 C   0  0  1  0  0  0  0  0  0  0  0  0
   11.2666   15.5330   22.4293 C   0  0  0  0  0  0  0  0  0  0  0  0
   10.5353   15.2307   21.1318 C   0  0  1  0  0  0  0  0  0  0  0  0
    9.1165   14.7574   21.4878 C   0  0  0  0  0  0  0  0  0  0  0  0
   10.3032   16.6189   20.5973 C   0  0  0  0  0  0  0  0  0  0  0  0
   10.1164   16.9480   19.4445 O   0  0  0  0  0  0  0  0  0  0  0  0
   10.2103   17.4143   21.7333 N   0  0  0  0  0  0  0  0  0  0  0  0
  2  1  1  6
  2  3  1  0
  2  4  1  0
  4  5  2  0
  5  6  1  0
  6  7  2  0
  7  8  1  0
  8  9  2  0
  9 10  1  0
 10 11  1  0
 11 12  2  0
 11 13  1  0
 13 14  1  0
 15 14  1  6
 15 16  1  0
 16 17  1  0
 17 18  1  1
 17 19  1  0
 19 20  2  0
 19 21  1  0
  9  4  1  0
 18 13  1  0
 21 15  1  0
M  CHG  2   2   1   3  -1
M  END
>  <alias>  (144) 
None

>  <Experiment code>  (144) 
nan

>  <CrystalformSites upload name>  (144) 
nan

>  <inchikey>  (144) 
ABGYSGOHXUTZSE-QLMNROTDSA-N

>  <Crystalforms upload name>  (144) 
nan

>  <Quatassemblies upload name>  (144) 
nan

>  <ConformerSites alias>  (144) 
nan

>  <ConformerSites short tag>  (144) 
nan

>  <Crystalforms short tag>  (144) 
nan

>  <Centroid res>  (144) 
nan

>  <Quatassemblies short tag>  (144) 
nan

>  <observation_longname>  (144) 
nan

>  <name>  (144) 
ABGYSGOHXUTZSE-QLMNROTDSA-N

>  <CanonSites upload name>  (144) 
nan

>  <tags>  (144) 
['iter2']

>  <energy_score>  (144) 
15.042402

>  <original SMILES>  (144) 
C[S@@+]([O-])c1ccccc1CC(=O)N1C[C@H]2C[C@@H](C1)C(=O)N2

>  <ref_mols>  (144) 
A4386a

>  <Pose>  (144) 
nan

>  <distance_score>  (144) 
1.115289

>  <ConformerSites upload name>  (144) 
nan

>  <HIPPO Pose ID>  (144) 
292606

>  <Crystalforms alias>  (144) 
nan

>  <original ID>  (144) 
ABGYSGOHXUTZSE-QLMNROTDSA-N

>  <CanonSites alias>  (144) 
nan

>  <CrystalformSites alias>  (144) 
nan

>  <ref_pdb>  (144) 
A4386a

>  <CanonSites short tag>  (144) 
nan

>  <Quatassemblies alias>  (144) 
nan

>  <HIPPO Compound ID>  (144) 
122711

>  <CrystalformSites short tag>  (144) 
nan

$$$$
KMYHYEWKIDCDGG-ABAIWWIYSA-N
     RDKit          3D

 21 23  0  0  0  0  0  0  0  0999 V2000
   10.2947   16.7698   19.0577 N   0  0  0  0  0  0  0  0  0  0  0  0
   10.9035   15.7479   19.8952 C   0  0  0  0  0  0  0  0  0  0  0  0
   11.6334   14.8413   19.6128 O   0  0  0  0  0  0  0  0  0  0  0  0
   10.3614   15.9251   21.3252 C   0  0  2  0  0  0  0  0  0  0  0  0
    9.8602   17.2089   21.4343 F   0  0  0  0  0  0  0  0  0  0  0  0
   11.3666   15.7365   22.4281 C   0  0  0  0  0  0  0  0  0  0  0  0
   10.5839   15.8387   23.7316 C   0  0  0  0  0  0  0  0  0  0  0  0
    9.1129   15.4213   23.5101 C   0  0  0  0  0  0  0  0  0  0  0  0
    9.0416   14.0849   22.8041 N   0  0  0  0  0  0  0  0  0  0  0  0
    7.9347   13.3268   23.2951 C   0  0  0  0  0  0  0  0  0  0  0  0
    6.7974   13.2699   22.9127 O   0  0  0  0  0  0  0  0  0  0  0  0
    8.4263   12.4624   24.4677 C   0  0  2  0  0  0  0  0  0  0  0  0
    9.1224   11.2078   23.9196 C   0  0  0  0  0  0  0  0  0  0  0  0
    8.2776    9.7280   24.5370 S   0  0  0  0  0  0  0  0  0  0  0  0
    7.1479   10.6560   25.5141 C   0  0  0  0  0  0  0  0  0  0  0  0
    6.1572   10.1235   26.3261 C   0  0  0  0  0  0  0  0  0  0  0  0
    5.3566   10.9839   27.0755 C   0  0  0  0  0  0  0  0  0  0  0  0
    5.5463   12.3660   26.9947 C   0  0  0  0  0  0  0  0  0  0  0  0
    6.5348   12.8957   26.1624 C   0  0  0  0  0  0  0  0  0  0  0  0
    7.3351   12.0315   25.4164 C   0  0  0  0  0  0  0  0  0  0  0  0
    9.1684   14.9758   21.5723 C   0  0  0  0  0  0  0  0  0  0  0  0
  1  2  1  0
  2  3  2  0
  2  4  1  0
  4  5  1  6
  4  6  1  0
  6  7  1  0
  7  8  1  0
  8  9  1  0
  9 10  1  0
 10 11  2  0
 12 10  1  6
 12 13  1  0
 13 14  1  0
 14 15  1  0
 15 16  2  0
 16 17  1  0
 17 18  2  0
 18 19  1  0
 19 20  2  0
  9 21  1  0
 21  4  1  0
 20 12  1  0
 20 15  1  0
M  END
>  <alias>  (145) 
None

>  <Experiment code>  (145) 
nan

>  <CrystalformSites upload name>  (145) 
nan

>  <inchikey>  (145) 
KMYHYEWKIDCDGG-ABAIWWIYSA-N

>  <Crystalforms upload name>  (145) 
nan

>  <Quatassemblies upload name>  (145) 
nan

>  <ConformerSites alias>  (145) 
nan

>  <ConformerSites short tag>  (145) 
nan

>  <Crystalforms short tag>  (145) 
nan

>  <Centroid res>  (145) 
nan

>  <Quatassemblies short tag>  (145) 
nan

>  <observation_longname>  (145) 
nan

>  <name>  (145) 
KMYHYEWKIDCDGG-ABAIWWIYSA-N

>  <CanonSites upload name>  (145) 
nan

>  <tags>  (145) 
['iter2']

>  <energy_score>  (145) 
141.725033

>  <original SMILES>  (145) 
NC(=O)[C@]1(F)CCCN(C(=O)[C@@H]2CSc3ccccc32)C1

>  <ref_mols>  (145) 
A4386a

>  <Pose>  (145) 
nan

>  <distance_score>  (145) 
1.093405

>  <ConformerSites upload name>  (145) 
nan

>  <HIPPO Pose ID>  (145) 
292846

>  <Crystalforms alias>  (145) 
nan

>  <original ID>  (145) 
KMYHYEWKIDCDGG-ABAIWWIYSA-N

>  <CanonSites alias>  (145) 
nan

>  <CrystalformSites alias>  (145) 
nan

>  <ref_pdb>  (145) 
A4386a

>  <CanonSites short tag>  (145) 
nan

>  <Quatassemblies alias>  (145) 
nan

>  <HIPPO Compound ID>  (145) 
122850

>  <CrystalformSites short tag>  (145) 
nan

$$$$
KMYHYEWKIDCDGG-IAQYHMDHSA-N
     RDKit          3D

 21 23  0  0  0  0  0  0  0  0999 V2000
   11.1868   14.6426   19.2201 N   0  0  0  0  0  0  0  0  0  0  0  0
   10.6677   15.7819   19.9400 C   0  0  0  0  0  0  0  0  0  0  0  0
   10.3525   16.8696   19.5549 O   0  0  0  0  0  0  0  0  0  0  0  0
   10.5489   15.3875   21.4181 C   0  0  1  0  0  0  0  0  0  0  0  0
   11.3765   14.3133   21.6745 F   0  0  0  0  0  0  0  0  0  0  0  0
   10.9045   16.4855   22.3842 C   0  0  0  0  0  0  0  0  0  0  0  0
   10.3903   16.0479   23.7451 C   0  0  0  0  0  0  0  0  0  0  0  0
    8.9657   15.4736   23.6110 C   0  0  0  0  0  0  0  0  0  0  0  0
    8.9286   14.1012   22.9410 N   0  0  0  0  0  0  0  0  0  0  0  0
    7.8012   13.3597   23.3999 C   0  0  0  0  0  0  0  0  0  0  0  0
    6.6858   13.2885   22.9641 O   0  0  0  0  0  0  0  0  0  0  0  0
    8.2677   12.4976   24.5817 C   0  0  2  0  0  0  0  0  0  0  0  0
    8.9847   11.2564   24.0218 C   0  0  0  0  0  0  0  0  0  0  0  0
    8.1893    9.7608   24.6637 S   0  0  0  0  0  0  0  0  0  0  0  0
    7.0186   10.6666   25.6142 C   0  0  0  0  0  0  0  0  0  0  0  0
    6.0362   10.1148   26.4230 C   0  0  0  0  0  0  0  0  0  0  0  0
    5.2044   10.9600   27.1556 C   0  0  0  0  0  0  0  0  0  0  0  0
    5.3528   12.3462   27.0591 C   0  0  0  0  0  0  0  0  0  0  0  0
    6.3338   12.8950   26.2309 C   0  0  0  0  0  0  0  0  0  0  0  0
    7.1668   12.0459   25.5042 C   0  0  0  0  0  0  0  0  0  0  0  0
    9.1153   14.9417   21.7036 C   0  0  0  0  0  0  0  0  0  0  0  0
  1  2  1  0
  2  3  2  0
  2  4  1  0
  4  5  1  6
  4  6  1  0
  6  7  1  0
  7  8  1  0
  8  9  1  0
  9 10  1  0
 10 11  2  0
 12 10  1  6
 12 13  1  0
 13 14  1  0
 14 15  1  0
 15 16  2  0
 16 17  1  0
 17 18  2  0
 18 19  1  0
 19 20  2  0
  9 21  1  0
 21  4  1  0
 20 12  1  0
 20 15  1  0
M  END
>  <alias>  (146) 
None

>  <Experiment code>  (146) 
nan

>  <CrystalformSites upload name>  (146) 
nan

>  <inchikey>  (146) 
KMYHYEWKIDCDGG-IAQYHMDHSA-N

>  <Crystalforms upload name>  (146) 
nan

>  <Quatassemblies upload name>  (146) 
nan

>  <ConformerSites alias>  (146) 
nan

>  <ConformerSites short tag>  (146) 
nan

>  <Crystalforms short tag>  (146) 
nan

>  <Centroid res>  (146) 
nan

>  <Quatassemblies short tag>  (146) 
nan

>  <observation_longname>  (146) 
nan

>  <name>  (146) 
KMYHYEWKIDCDGG-IAQYHMDHSA-N

>  <CanonSites upload name>  (146) 
nan

>  <tags>  (146) 
['iter2']

>  <energy_score>  (146) 
178.184567

>  <original SMILES>  (146) 
NC(=O)[C@@]1(F)CCCN(C(=O)[C@@H]2CSc3ccccc32)C1

>  <ref_mols>  (146) 
A4386a

>  <Pose>  (146) 
nan

>  <distance_score>  (146) 
1.12125

>  <ConformerSites upload name>  (146) 
nan

>  <HIPPO Pose ID>  (146) 
292847

>  <Crystalforms alias>  (146) 
nan

>  <original ID>  (146) 
KMYHYEWKIDCDGG-IAQYHMDHSA-N

>  <CanonSites alias>  (146) 
nan

>  <CrystalformSites alias>  (146) 
nan

>  <ref_pdb>  (146) 
A4386a

>  <CanonSites short tag>  (146) 
nan

>  <Quatassemblies alias>  (146) 
nan

>  <HIPPO Compound ID>  (146) 
122850

>  <CrystalformSites short tag>  (146) 
nan

$$$$
KMYHYEWKIDCDGG-XHDPSFHLSA-N
     RDKit          3D

 21 23  0  0  0  0  0  0  0  0999 V2000
   10.1213   16.6332   19.7702 N   0  0  0  0  0  0  0  0  0  0  0  0
   10.4292   16.7031   21.1854 C   0  0  0  0  0  0  0  0  0  0  0  0
   11.0043   17.5426   21.8197 O   0  0  0  0  0  0  0  0  0  0  0  0
    9.9981   15.4171   21.8723 C   0  0  1  0  0  0  0  0  0  0  0  0
    9.2577   14.6474   21.0090 F   0  0  0  0  0  0  0  0  0  0  0  0
   11.2671   14.6653   22.2338 C   0  0  0  0  0  0  0  0  0  0  0  0
   10.9527   13.6772   23.3265 C   0  0  0  0  0  0  0  0  0  0  0  0
    9.9818   14.3045   24.3149 C   0  0  0  0  0  0  0  0  0  0  0  0
    8.5655   14.4213   23.7602 N   0  0  0  0  0  0  0  0  0  0  0  0
    7.6092   14.2544   24.8114 C   0  0  0  0  0  0  0  0  0  0  0  0
    7.0920   15.0661   25.5314 O   0  0  0  0  0  0  0  0  0  0  0  0
    7.1821   12.7526   24.8569 C   0  0  1  0  0  0  0  0  0  0  0  0
    8.2661   11.6864   24.6375 C   0  0  0  0  0  0  0  0  0  0  0  0
    7.5690   10.0837   25.1077 S   0  0  0  0  0  0  0  0  0  0  0  0
    6.4087   10.8585   26.1885 C   0  0  0  0  0  0  0  0  0  0  0  0
    5.6035   10.1888   27.0989 C   0  0  0  0  0  0  0  0  0  0  0  0
    4.7445   10.9282   27.9052 C   0  0  0  0  0  0  0  0  0  0  0  0
    4.6819   12.3173   27.7688 C   0  0  0  0  0  0  0  0  0  0  0  0
    5.4726   12.9793   26.8236 C   0  0  0  0  0  0  0  0  0  0  0  0
    6.3604   12.2526   26.0364 C   0  0  0  0  0  0  0  0  0  0  0  0
    9.1521   15.6859   23.1359 C   0  0  0  0  0  0  0  0  0  0  0  0
  1  2  1  0
  2  3  2  0
  2  4  1  0
  4  5  1  6
  4  6  1  0
  6  7  1  0
  7  8  1  0
  8  9  1  0
  9 10  1  0
 10 11  2  0
 12 10  1  1
 12 13  1  0
 13 14  1  0
 14 15  1  0
 15 16  2  0
 16 17  1  0
 17 18  2  0
 18 19  1  0
 19 20  2  0
  9 21  1  0
 21  4  1  0
 20 12  1  0
 20 15  1  0
M  END
>  <alias>  (147) 
None

>  <Experiment code>  (147) 
nan

>  <CrystalformSites upload name>  (147) 
nan

>  <inchikey>  (147) 
KMYHYEWKIDCDGG-XHDPSFHLSA-N

>  <Crystalforms upload name>  (147) 
nan

>  <Quatassemblies upload name>  (147) 
nan

>  <ConformerSites alias>  (147) 
nan

>  <ConformerSites short tag>  (147) 
nan

>  <Crystalforms short tag>  (147) 
nan

>  <Centroid res>  (147) 
nan

>  <Quatassemblies short tag>  (147) 
nan

>  <observation_longname>  (147) 
nan

>  <name>  (147) 
KMYHYEWKIDCDGG-XHDPSFHLSA-N

>  <CanonSites upload name>  (147) 
nan

>  <tags>  (147) 
['iter2']

>  <energy_score>  (147) 
86.672044

>  <original SMILES>  (147) 
NC(=O)[C@@]1(F)CCCN(C(=O)[C@H]2CSc3ccccc32)C1

>  <ref_mols>  (147) 
A4386a

>  <Pose>  (147) 
nan

>  <distance_score>  (147) 
1.930507

>  <ConformerSites upload name>  (147) 
nan

>  <HIPPO Pose ID>  (147) 
292848

>  <Crystalforms alias>  (147) 
nan

>  <original ID>  (147) 
KMYHYEWKIDCDGG-XHDPSFHLSA-N

>  <CanonSites alias>  (147) 
nan

>  <CrystalformSites alias>  (147) 
nan

>  <ref_pdb>  (147) 
A4386a

>  <CanonSites short tag>  (147) 
nan

>  <Quatassemblies alias>  (147) 
nan

>  <HIPPO Compound ID>  (147) 
122850

>  <CrystalformSites short tag>  (147) 
nan

$$$$
FVZMXFCKEYPRMB-NTZNESFSSA-N
     RDKit          3D

 21 24  0  0  0  0  0  0  0  0999 V2000
   10.5658   16.1449   19.1210 C   0  0  0  0  0  0  0  0  0  0  0  0
   10.7318   16.2038   20.5534 N   0  0  0  0  0  0  0  0  0  0  0  0
   10.0762   17.1446   21.3660 C   0  0  0  0  0  0  0  0  0  0  0  0
    9.4956   18.1449   20.9991 O   0  0  0  0  0  0  0  0  0  0  0  0
   10.0748   16.5341   22.7774 C   0  0  2  0  0  0  0  0  0  0  0  0
   11.2095   15.5305   22.6584 C   0  0  0  0  0  0  0  0  0  0  0  0
   10.7559   14.9918   21.3200 C   0  0  1  0  0  0  0  0  0  0  0  0
    9.2762   14.5362   21.4666 C   0  0  0  0  0  0  0  0  0  0  0  0
    8.8535   14.1760   22.8304 N   0  0  0  0  0  0  0  0  0  0  0  0
    7.6495   13.5567   23.3036 C   0  0  0  0  0  0  0  0  0  0  0  0
    6.6451   13.2578   22.7187 O   0  0  0  0  0  0  0  0  0  0  0  0
    7.8978   13.2096   24.7724 C   0  0  2  0  0  0  0  0  0  0  0  0
    9.0306   12.1590   24.7870 C   0  0  0  0  0  0  0  0  0  0  0  0
    8.2575   10.5172   24.8471 S   0  0  0  0  0  0  0  0  0  0  0  0
    6.8492   11.1811   25.6689 C   0  0  0  0  0  0  0  0  0  0  0  0
    5.9275   10.4586   26.4100 C   0  0  0  0  0  0  0  0  0  0  0  0
    4.9102   11.1518   27.0624 C   0  0  0  0  0  0  0  0  0  0  0  0
    4.8109   12.5439   26.9389 C   0  0  0  0  0  0  0  0  0  0  0  0
    5.7388   13.2618   26.1783 C   0  0  0  0  0  0  0  0  0  0  0  0
    6.7726   12.5746   25.5533 C   0  0  0  0  0  0  0  0  0  0  0  0
    8.7522   15.7328   22.9642 C   0  0  0  0  0  0  0  0  0  0  0  0
  1  2  1  0
  2  3  1  0
  3  4  2  0
  3  5  1  0
  5  6  1  0
  6  7  1  0
  7  8  1  1
  8  9  1  0
  9 10  1  0
 10 11  2  0
 12 10  1  6
 12 13  1  0
 13 14  1  0
 14 15  1  0
 15 16  2  0
 16 17  1  0
 17 18  2  0
 18 19  1  0
 19 20  2  0
  9 21  1  0
  7  2  1  0
 20 12  1  0
  5 21  1  6
 20 15  1  0
M  END
>  <alias>  (148) 
None

>  <Experiment code>  (148) 
nan

>  <CrystalformSites upload name>  (148) 
nan

>  <inchikey>  (148) 
FVZMXFCKEYPRMB-NTZNESFSSA-N

>  <Crystalforms upload name>  (148) 
nan

>  <Quatassemblies upload name>  (148) 
nan

>  <ConformerSites alias>  (148) 
nan

>  <ConformerSites short tag>  (148) 
nan

>  <Crystalforms short tag>  (148) 
nan

>  <Centroid res>  (148) 
nan

>  <Quatassemblies short tag>  (148) 
nan

>  <observation_longname>  (148) 
nan

>  <name>  (148) 
FVZMXFCKEYPRMB-NTZNESFSSA-N

>  <CanonSites upload name>  (148) 
nan

>  <tags>  (148) 
['iter2']

>  <energy_score>  (148) 
37.565156

>  <original SMILES>  (148) 
CN1C(=O)[C@@H]2C[C@H]1CN(C(=O)[C@@H]1CSc3ccccc31)C2

>  <ref_mols>  (148) 
A4386a

>  <Pose>  (148) 
nan

>  <distance_score>  (148) 
1.495238

>  <ConformerSites upload name>  (148) 
nan

>  <HIPPO Pose ID>  (148) 
292908

>  <Crystalforms alias>  (148) 
nan

>  <original ID>  (148) 
FVZMXFCKEYPRMB-NTZNESFSSA-N

>  <CanonSites alias>  (148) 
nan

>  <CrystalformSites alias>  (148) 
nan

>  <ref_pdb>  (148) 
A4386a

>  <CanonSites short tag>  (148) 
nan

>  <Quatassemblies alias>  (148) 
nan

>  <HIPPO Compound ID>  (148) 
122832

>  <CrystalformSites short tag>  (148) 
nan

$$$$
FVZMXFCKEYPRMB-NTZNESFSSA-N
     RDKit          3D

 21 24  0  0  0  0  0  0  0  0999 V2000
   10.1713   16.6402   19.6260 C   0  0  0  0  0  0  0  0  0  0  0  0
   10.1372   16.0906   20.9494 N   0  0  0  0  0  0  0  0  0  0  0  0
   10.8297   16.5207   22.0650 C   0  0  0  0  0  0  0  0  0  0  0  0
   11.4782   17.5377   22.1871 O   0  0  0  0  0  0  0  0  0  0  0  0
   10.6894   15.3910   23.0878 C   0  0  2  0  0  0  0  0  0  0  0  0
   10.7707   14.2321   22.1137 C   0  0  0  0  0  0  0  0  0  0  0  0
    9.6840   14.7603   21.1895 C   0  0  1  0  0  0  0  0  0  0  0  0
    8.3585   14.8869   21.9741 C   0  0  0  0  0  0  0  0  0  0  0  0
    8.3483   14.1356   23.2569 N   0  0  0  0  0  0  0  0  0  0  0  0
    7.3016   13.9256   24.2064 C   0  0  0  0  0  0  0  0  0  0  0  0
    6.1907   14.3771   24.2545 O   0  0  0  0  0  0  0  0  0  0  0  0
    7.7976   12.8544   25.2076 C   0  0  2  0  0  0  0  0  0  0  0  0
    8.4328   11.6757   24.4195 C   0  0  0  0  0  0  0  0  0  0  0  0
    7.8456   10.0943   25.0659 S   0  0  0  0  0  0  0  0  0  0  0  0
    6.6274   10.8667   26.0692 C   0  0  0  0  0  0  0  0  0  0  0  0
    5.6860   10.1910   26.8335 C   0  0  0  0  0  0  0  0  0  0  0  0
    4.8247   10.9228   27.6472 C   0  0  0  0  0  0  0  0  0  0  0  0
    4.9101   12.3171   27.6817 C   0  0  0  0  0  0  0  0  0  0  0  0
    5.8560   12.9885   26.9034 C   0  0  0  0  0  0  0  0  0  0  0  0
    6.7138   12.2590   26.0821 C   0  0  0  0  0  0  0  0  0  0  0  0
    9.2582   15.3424   23.7065 C   0  0  0  0  0  0  0  0  0  0  0  0
  1  2  1  0
  2  3  1  0
  3  4  2  0
  3  5  1  0
  5  6  1  0
  6  7  1  0
  7  8  1  1
  8  9  1  0
  9 10  1  0
 10 11  2  0
 12 10  1  6
 12 13  1  0
 13 14  1  0
 14 15  1  0
 15 16  2  0
 16 17  1  0
 17 18  2  0
 18 19  1  0
 19 20  2  0
  9 21  1  0
  7  2  1  0
 20 12  1  0
  5 21  1  6
 20 15  1  0
M  END
>  <alias>  (149) 
None

>  <Experiment code>  (149) 
nan

>  <CrystalformSites upload name>  (149) 
nan

>  <inchikey>  (149) 
FVZMXFCKEYPRMB-NTZNESFSSA-N

>  <Crystalforms upload name>  (149) 
nan

>  <Quatassemblies upload name>  (149) 
nan

>  <ConformerSites alias>  (149) 
nan

>  <ConformerSites short tag>  (149) 
nan

>  <Crystalforms short tag>  (149) 
nan

>  <Centroid res>  (149) 
nan

>  <Quatassemblies short tag>  (149) 
nan

>  <observation_longname>  (149) 
nan

>  <name>  (149) 
FVZMXFCKEYPRMB-NTZNESFSSA-N

>  <CanonSites upload name>  (149) 
nan

>  <tags>  (149) 
['iter2']

>  <energy_score>  (149) 
-97.800236

>  <original SMILES>  (149) 
CN1C(=O)[C@@H]2C[C@H]1CN(C(=O)[C@@H]1CSc3ccccc31)C2

>  <ref_mols>  (149) 
A4386a

>  <Pose>  (149) 
nan

>  <distance_score>  (149) 
1.678021

>  <ConformerSites upload name>  (149) 
nan

>  <HIPPO Pose ID>  (149) 
292909

>  <Crystalforms alias>  (149) 
nan

>  <original ID>  (149) 
FVZMXFCKEYPRMB-NTZNESFSSA-N

>  <CanonSites alias>  (149) 
nan

>  <CrystalformSites alias>  (149) 
nan

>  <ref_pdb>  (149) 
A4386a

>  <CanonSites short tag>  (149) 
nan

>  <Quatassemblies alias>  (149) 
nan

>  <HIPPO Compound ID>  (149) 
122832

>  <CrystalformSites short tag>  (149) 
nan

$$$$
FVZMXFCKEYPRMB-NTZNESFSSA-N
     RDKit          3D

 21 24  0  0  0  0  0  0  0  0999 V2000
   10.5637   16.1519   19.1294 C   0  0  0  0  0  0  0  0  0  0  0  0
   10.7330   16.2046   20.5618 N   0  0  0  0  0  0  0  0  0  0  0  0
   10.0797   17.1438   21.3782 C   0  0  0  0  0  0  0  0  0  0  0  0
    9.5003   18.1462   21.0163 O   0  0  0  0  0  0  0  0  0  0  0  0
   10.0773   16.5289   22.7871 C   0  0  2  0  0  0  0  0  0  0  0  0
   11.2103   15.5239   22.6647 C   0  0  0  0  0  0  0  0  0  0  0  0
   10.7557   14.9904   21.3244 C   0  0  1  0  0  0  0  0  0  0  0  0
    9.2757   14.5356   21.4700 C   0  0  0  0  0  0  0  0  0  0  0  0
    8.8526   14.1736   22.8335 N   0  0  0  0  0  0  0  0  0  0  0  0
    7.6479   13.5549   23.3057 C   0  0  0  0  0  0  0  0  0  0  0  0
    6.6433   13.2579   22.7203 O   0  0  0  0  0  0  0  0  0  0  0  0
    7.8960   13.2053   24.7739 C   0  0  2  0  0  0  0  0  0  0  0  0
    9.0270   12.1531   24.7874 C   0  0  0  0  0  0  0  0  0  0  0  0
    8.2520   10.5125   24.8505 S   0  0  0  0  0  0  0  0  0  0  0  0
    6.8447   11.1791   25.6721 C   0  0  0  0  0  0  0  0  0  0  0  0
    5.9221   10.4587   26.4141 C   0  0  0  0  0  0  0  0  0  0  0  0
    4.9053   11.1539   27.0653 C   0  0  0  0  0  0  0  0  0  0  0  0
    4.8076   12.5460   26.9398 C   0  0  0  0  0  0  0  0  0  0  0  0
    5.7366   13.2617   26.1787 C   0  0  0  0  0  0  0  0  0  0  0  0
    6.7698   12.5725   25.5549 C   0  0  0  0  0  0  0  0  0  0  0  0
    8.7529   15.7301   22.9698 C   0  0  0  0  0  0  0  0  0  0  0  0
  1  2  1  0
  2  3  1  0
  3  4  2  0
  3  5  1  0
  5  6  1  0
  6  7  1  0
  7  8  1  1
  8  9  1  0
  9 10  1  0
 10 11  2  0
 12 10  1  6
 12 13  1  0
 13 14  1  0
 14 15  1  0
 15 16  2  0
 16 17  1  0
 17 18  2  0
 18 19  1  0
 19 20  2  0
  9 21  1  0
  7  2  1  0
 20 12  1  0
  5 21  1  6
 20 15  1  0
M  END
>  <alias>  (150) 
None

>  <Experiment code>  (150) 
nan

>  <CrystalformSites upload name>  (150) 
nan

>  <inchikey>  (150) 
FVZMXFCKEYPRMB-NTZNESFSSA-N

>  <Crystalforms upload name>  (150) 
nan

>  <Quatassemblies upload name>  (150) 
nan

>  <ConformerSites alias>  (150) 
nan

>  <ConformerSites short tag>  (150) 
nan

>  <Crystalforms short tag>  (150) 
nan

>  <Centroid res>  (150) 
nan

>  <Quatassemblies short tag>  (150) 
nan

>  <observation_longname>  (150) 
nan

>  <name>  (150) 
FVZMXFCKEYPRMB-NTZNESFSSA-N

>  <CanonSites upload name>  (150) 
nan

>  <tags>  (150) 
['iter2']

>  <energy_score>  (150) 
23.600328

>  <original SMILES>  (150) 
CN1C(=O)[C@@H]2C[C@H]1CN(C(=O)[C@@H]1CSc3ccccc31)C2

>  <ref_mols>  (150) 
A4386a

>  <Pose>  (150) 
nan

>  <distance_score>  (150) 
1.497104

>  <ConformerSites upload name>  (150) 
nan

>  <HIPPO Pose ID>  (150) 
292910

>  <Crystalforms alias>  (150) 
nan

>  <original ID>  (150) 
FVZMXFCKEYPRMB-NTZNESFSSA-N

>  <CanonSites alias>  (150) 
nan

>  <CrystalformSites alias>  (150) 
nan

>  <ref_pdb>  (150) 
A4386a

>  <CanonSites short tag>  (150) 
nan

>  <Quatassemblies alias>  (150) 
nan

>  <HIPPO Compound ID>  (150) 
122832

>  <CrystalformSites short tag>  (150) 
nan

$$$$
GETTUYBPGFPSRH-CYZMBNFOSA-N
     RDKit          3D

 21 24  0  0  0  0  0  0  0  0999 V2000
    9.2285   16.7152   19.0584 O   0  0  0  0  0  0  0  0  0  0  0  0
    9.9769   15.9955   19.6708 C   0  0  0  0  0  0  0  0  0  0  0  0
   11.2131   15.6031   19.1948 N   0  0  0  0  0  0  0  0  0  0  0  0
   12.0508   15.2360   20.2970 C   0  0  0  0  0  0  0  0  0  0  0  0
   11.2569   15.6866   21.5029 C   0  0  2  0  0  0  0  0  0  0  0  0
   11.4171   15.0362   22.8453 C   0  0  0  0  0  0  0  0  0  0  0  0
   10.1332   15.3446   23.6445 C   0  0  0  0  0  0  0  0  0  0  0  0
    8.8968   14.5725   23.1787 N   0  0  0  0  0  0  0  0  0  0  0  0
    7.9612   14.2804   24.3409 C   0  0  0  0  0  0  0  0  0  0  0  0
    7.0642   14.9069   24.7708 O   0  0  0  0  0  0  0  0  0  0  0  0
    8.4183   12.9019   24.9098 C   0  0  2  0  0  0  0  0  0  0  0  0
    9.0008   11.9788   23.8106 C   0  0  0  0  0  0  0  0  0  0  0  0
    8.7763   10.2603   24.2786 S   0  0  0  0  0  0  0  0  0  0  0  0
    7.4416   10.7017   25.3345 C   0  0  0  0  0  0  0  0  0  0  0  0
    6.5705    9.7972   25.9096 C   0  0  0  0  0  0  0  0  0  0  0  0
    5.5738   10.2536   26.7633 C   0  0  0  0  0  0  0  0  0  0  0  0
    5.4633   11.6190   27.0292 C   0  0  0  0  0  0  0  0  0  0  0  0
    6.3485   12.5311   26.4451 C   0  0  0  0  0  0  0  0  0  0  0  0
    7.3365   12.0734   25.5766 C   0  0  0  0  0  0  0  0  0  0  0  0
    8.8904   15.7287   22.1419 C   0  0  0  0  0  0  0  0  0  0  0  0
    9.8547   15.3811   21.0304 C   0  0  1  0  0  0  0  0  0  0  0  0
  1  2  2  0
  2  3  1  0
  3  4  1  0
  5  4  1  6
  5  6  1  0
  6  7  1  0
  7  8  1  0
  8  9  1  0
  9 10  2  0
 11  9  1  6
 11 12  1  0
 12 13  1  0
 13 14  1  0
 14 15  2  0
 15 16  1  0
 16 17  2  0
 17 18  1  0
 18 19  2  0
  8 20  1  0
 21 20  1  1
 21  2  1  0
 21  5  1  0
 19 11  1  0
 19 14  1  0
M  END
>  <alias>  (151) 
None

>  <Experiment code>  (151) 
nan

>  <CrystalformSites upload name>  (151) 
nan

>  <inchikey>  (151) 
GETTUYBPGFPSRH-CYZMBNFOSA-N

>  <Crystalforms upload name>  (151) 
nan

>  <Quatassemblies upload name>  (151) 
nan

>  <ConformerSites alias>  (151) 
nan

>  <ConformerSites short tag>  (151) 
nan

>  <Crystalforms short tag>  (151) 
nan

>  <Centroid res>  (151) 
nan

>  <Quatassemblies short tag>  (151) 
nan

>  <observation_longname>  (151) 
nan

>  <name>  (151) 
GETTUYBPGFPSRH-CYZMBNFOSA-N

>  <CanonSites upload name>  (151) 
nan

>  <tags>  (151) 
['iter2']

>  <energy_score>  (151) 
-119.074191

>  <original SMILES>  (151) 
O=C1NC[C@@H]2CCN(C(=O)[C@@H]3CSc4ccccc43)C[C@@H]12

>  <ref_mols>  (151) 
A4386a

>  <Pose>  (151) 
nan

>  <distance_score>  (151) 
1.081362

>  <ConformerSites upload name>  (151) 
nan

>  <HIPPO Pose ID>  (151) 
292925

>  <Crystalforms alias>  (151) 
nan

>  <original ID>  (151) 
GETTUYBPGFPSRH-CYZMBNFOSA-N

>  <CanonSites alias>  (151) 
nan

>  <CrystalformSites alias>  (151) 
nan

>  <ref_pdb>  (151) 
A4386a

>  <CanonSites short tag>  (151) 
nan

>  <Quatassemblies alias>  (151) 
nan

>  <HIPPO Compound ID>  (151) 
122846

>  <CrystalformSites short tag>  (151) 
nan

$$$$
GETTUYBPGFPSRH-CYZMBNFOSA-N
     RDKit          3D

 21 24  0  0  0  0  0  0  0  0999 V2000
    9.2114   16.6709   19.0270 O   0  0  0  0  0  0  0  0  0  0  0  0
    9.9715   15.9842   19.6622 C   0  0  0  0  0  0  0  0  0  0  0  0
   11.2234   15.6166   19.2056 N   0  0  0  0  0  0  0  0  0  0  0  0
   12.0499   15.2632   20.3198 C   0  0  0  0  0  0  0  0  0  0  0  0
   11.2372   15.7089   21.5130 C   0  0  2  0  0  0  0  0  0  0  0  0
   11.3945   15.0652   22.8587 C   0  0  0  0  0  0  0  0  0  0  0  0
   10.0998   15.3639   23.6440 C   0  0  0  0  0  0  0  0  0  0  0  0
    8.8777   14.5730   23.1718 N   0  0  0  0  0  0  0  0  0  0  0  0
    7.9355   14.2757   24.3271 C   0  0  0  0  0  0  0  0  0  0  0  0
    7.0267   14.8930   24.7452 O   0  0  0  0  0  0  0  0  0  0  0  0
    8.4043   12.9054   24.9059 C   0  0  2  0  0  0  0  0  0  0  0  0
    8.9970   11.9820   23.8123 C   0  0  0  0  0  0  0  0  0  0  0  0
    8.7770   10.2632   24.2810 S   0  0  0  0  0  0  0  0  0  0  0  0
    7.4395   10.7007   25.3349 C   0  0  0  0  0  0  0  0  0  0  0  0
    6.5716    9.7935   25.9106 C   0  0  0  0  0  0  0  0  0  0  0  0
    5.5728   10.2468   26.7637 C   0  0  0  0  0  0  0  0  0  0  0  0
    5.4569   11.6120   27.0284 C   0  0  0  0  0  0  0  0  0  0  0  0
    6.3383   12.5268   26.4431 C   0  0  0  0  0  0  0  0  0  0  0  0
    7.3281   12.0720   25.5750 C   0  0  0  0  0  0  0  0  0  0  0  0
    8.8658   15.7235   22.1273 C   0  0  0  0  0  0  0  0  0  0  0  0
    9.8448   15.3809   21.0271 C   0  0  1  0  0  0  0  0  0  0  0  0
  1  2  2  0
  2  3  1  0
  3  4  1  0
  5  4  1  6
  5  6  1  0
  6  7  1  0
  7  8  1  0
  8  9  1  0
  9 10  2  0
 11  9  1  6
 11 12  1  0
 12 13  1  0
 13 14  1  0
 14 15  2  0
 15 16  1  0
 16 17  2  0
 17 18  1  0
 18 19  2  0
  8 20  1  0
 21 20  1  1
 21  2  1  0
 21  5  1  0
 19 11  1  0
 19 14  1  0
M  END
>  <alias>  (152) 
None

>  <Experiment code>  (152) 
nan

>  <CrystalformSites upload name>  (152) 
nan

>  <inchikey>  (152) 
GETTUYBPGFPSRH-CYZMBNFOSA-N

>  <Crystalforms upload name>  (152) 
nan

>  <Quatassemblies upload name>  (152) 
nan

>  <ConformerSites alias>  (152) 
nan

>  <ConformerSites short tag>  (152) 
nan

>  <Crystalforms short tag>  (152) 
nan

>  <Centroid res>  (152) 
nan

>  <Quatassemblies short tag>  (152) 
nan

>  <observation_longname>  (152) 
nan

>  <name>  (152) 
GETTUYBPGFPSRH-CYZMBNFOSA-N

>  <CanonSites upload name>  (152) 
nan

>  <tags>  (152) 
['iter2']

>  <energy_score>  (152) 
29.027427

>  <original SMILES>  (152) 
O=C1NC[C@@H]2CCN(C(=O)[C@@H]3CSc4ccccc43)C[C@@H]12

>  <ref_mols>  (152) 
A4386a

>  <Pose>  (152) 
nan

>  <distance_score>  (152) 
1.079547

>  <ConformerSites upload name>  (152) 
nan

>  <HIPPO Pose ID>  (152) 
292926

>  <Crystalforms alias>  (152) 
nan

>  <original ID>  (152) 
GETTUYBPGFPSRH-CYZMBNFOSA-N

>  <CanonSites alias>  (152) 
nan

>  <CrystalformSites alias>  (152) 
nan

>  <ref_pdb>  (152) 
A4386a

>  <CanonSites short tag>  (152) 
nan

>  <Quatassemblies alias>  (152) 
nan

>  <HIPPO Compound ID>  (152) 
122846

>  <CrystalformSites short tag>  (152) 
nan

$$$$
GETTUYBPGFPSRH-UHTWSYAYSA-N
     RDKit          3D

 21 24  0  0  0  0  0  0  0  0999 V2000
    9.1824   18.2165   20.7658 O   0  0  0  0  0  0  0  0  0  0  0  0
    9.6528   17.1034   20.6936 C   0  0  0  0  0  0  0  0  0  0  0  0
   10.4975   16.6202   19.6920 N   0  0  0  0  0  0  0  0  0  0  0  0
   11.1494   15.3957   20.0936 C   0  0  0  0  0  0  0  0  0  0  0  0
   10.8707   15.3945   21.5814 C   0  0  2  0  0  0  0  0  0  0  0  0
   10.8366   14.1464   22.4102 C   0  0  0  0  0  0  0  0  0  0  0  0
   10.1205   14.5054   23.7227 C   0  0  0  0  0  0  0  0  0  0  0  0
    8.5912   14.7062   23.6027 N   0  0  0  0  0  0  0  0  0  0  0  0
    7.9474   14.3420   24.8333 C   0  0  0  0  0  0  0  0  0  0  0  0
    7.6751   15.0060   25.7981 O   0  0  0  0  0  0  0  0  0  0  0  0
    7.5009   12.8528   24.7159 C   0  0  1  0  0  0  0  0  0  0  0  0
    8.6185   11.8238   24.5355 C   0  0  0  0  0  0  0  0  0  0  0  0
    7.9207   10.1891   24.8847 S   0  0  0  0  0  0  0  0  0  0  0  0
    6.6794   10.8955   25.9221 C   0  0  0  0  0  0  0  0  0  0  0  0
    5.8301   10.1853   26.7573 C   0  0  0  0  0  0  0  0  0  0  0  0
    4.9100   10.8844   27.5337 C   0  0  0  0  0  0  0  0  0  0  0  0
    4.8278   12.2761   27.4372 C   0  0  0  0  0  0  0  0  0  0  0  0
    5.6620   12.9801   26.5635 C   0  0  0  0  0  0  0  0  0  0  0  0
    6.6114   12.2909   25.8146 C   0  0  0  0  0  0  0  0  0  0  0  0
    9.0353   16.0762   23.0705 C   0  0  0  0  0  0  0  0  0  0  0  0
    9.4612   15.9496   21.6218 C   0  0  1  0  0  0  0  0  0  0  0  0
  1  2  2  0
  2  3  1  0
  3  4  1  0
  5  4  1  6
  5  6  1  0
  6  7  1  0
  7  8  1  0
  8  9  1  0
  9 10  2  0
 11  9  1  1
 11 12  1  0
 12 13  1  0
 13 14  1  0
 14 15  2  0
 15 16  1  0
 16 17  2  0
 17 18  1  0
 18 19  2  0
  8 20  1  0
 21 20  1  1
 21  2  1  0
 21  5  1  0
 19 11  1  0
 19 14  1  0
M  END
>  <alias>  (153) 
None

>  <Experiment code>  (153) 
nan

>  <CrystalformSites upload name>  (153) 
nan

>  <inchikey>  (153) 
GETTUYBPGFPSRH-UHTWSYAYSA-N

>  <Crystalforms upload name>  (153) 
nan

>  <Quatassemblies upload name>  (153) 
nan

>  <ConformerSites alias>  (153) 
nan

>  <ConformerSites short tag>  (153) 
nan

>  <Crystalforms short tag>  (153) 
nan

>  <Centroid res>  (153) 
nan

>  <Quatassemblies short tag>  (153) 
nan

>  <observation_longname>  (153) 
nan

>  <name>  (153) 
GETTUYBPGFPSRH-UHTWSYAYSA-N

>  <CanonSites upload name>  (153) 
nan

>  <tags>  (153) 
['iter2']

>  <energy_score>  (153) 
0.251213

>  <original SMILES>  (153) 
O=C1NC[C@@H]2CCN(C(=O)[C@H]3CSc4ccccc43)C[C@@H]12

>  <ref_mols>  (153) 
A4386a

>  <Pose>  (153) 
nan

>  <distance_score>  (153) 
1.75903

>  <ConformerSites upload name>  (153) 
nan

>  <HIPPO Pose ID>  (153) 
292927

>  <Crystalforms alias>  (153) 
nan

>  <original ID>  (153) 
GETTUYBPGFPSRH-UHTWSYAYSA-N

>  <CanonSites alias>  (153) 
nan

>  <CrystalformSites alias>  (153) 
nan

>  <ref_pdb>  (153) 
A4386a

>  <CanonSites short tag>  (153) 
nan

>  <Quatassemblies alias>  (153) 
nan

>  <HIPPO Compound ID>  (153) 
122846

>  <CrystalformSites short tag>  (153) 
nan

$$$$
GETTUYBPGFPSRH-UHTWSYAYSA-N
     RDKit          3D

 21 24  0  0  0  0  0  0  0  0999 V2000
    9.2482   16.7880   19.0036 O   0  0  0  0  0  0  0  0  0  0  0  0
    9.9747   16.1003   19.6774 C   0  0  0  0  0  0  0  0  0  0  0  0
   11.2318   15.7103   19.2743 N   0  0  0  0  0  0  0  0  0  0  0  0
   11.9868   15.1958   20.3709 C   0  0  0  0  0  0  0  0  0  0  0  0
   11.1291   15.5056   21.5727 C   0  0  2  0  0  0  0  0  0  0  0  0
   11.0999   14.5979   22.7713 C   0  0  0  0  0  0  0  0  0  0  0  0
    9.8366   14.9693   23.5824 C   0  0  0  0  0  0  0  0  0  0  0  0
    8.4588   14.6230   22.9592 N   0  0  0  0  0  0  0  0  0  0  0  0
    7.4854   14.4387   23.9923 C   0  0  0  0  0  0  0  0  0  0  0  0
    6.7388   15.2249   24.5097 O   0  0  0  0  0  0  0  0  0  0  0  0
    7.4187   12.9286   24.3320 C   0  0  1  0  0  0  0  0  0  0  0  0
    8.6846   12.0663   24.2702 C   0  0  0  0  0  0  0  0  0  0  0  0
    8.1502   10.3923   24.7488 S   0  0  0  0  0  0  0  0  0  0  0  0
    6.8514   11.0539   25.7543 C   0  0  0  0  0  0  0  0  0  0  0  0
    6.0722   10.3295   26.6427 C   0  0  0  0  0  0  0  0  0  0  0  0
    5.1262   11.0043   27.4086 C   0  0  0  0  0  0  0  0  0  0  0  0
    4.9526   12.3827   27.2509 C   0  0  0  0  0  0  0  0  0  0  0  0
    5.7016   13.0956   26.3078 C   0  0  0  0  0  0  0  0  0  0  0  0
    6.6580   12.4304   25.5495 C   0  0  0  0  0  0  0  0  0  0  0  0
    8.7862   15.8520   22.0957 C   0  0  0  0  0  0  0  0  0  0  0  0
    9.7375   15.4331   20.9950 C   0  0  1  0  0  0  0  0  0  0  0  0
  1  2  2  0
  2  3  1  0
  3  4  1  0
  5  4  1  6
  5  6  1  0
  6  7  1  0
  7  8  1  0
  8  9  1  0
  9 10  2  0
 11  9  1  1
 11 12  1  0
 12 13  1  0
 13 14  1  0
 14 15  2  0
 15 16  1  0
 16 17  2  0
 17 18  1  0
 18 19  2  0
  8 20  1  0
 21 20  1  1
 21  2  1  0
 21  5  1  0
 19 11  1  0
 19 14  1  0
M  END
>  <alias>  (154) 
None

>  <Experiment code>  (154) 
nan

>  <CrystalformSites upload name>  (154) 
nan

>  <inchikey>  (154) 
GETTUYBPGFPSRH-UHTWSYAYSA-N

>  <Crystalforms upload name>  (154) 
nan

>  <Quatassemblies upload name>  (154) 
nan

>  <ConformerSites alias>  (154) 
nan

>  <ConformerSites short tag>  (154) 
nan

>  <Crystalforms short tag>  (154) 
nan

>  <Centroid res>  (154) 
nan

>  <Quatassemblies short tag>  (154) 
nan

>  <observation_longname>  (154) 
nan

>  <name>  (154) 
GETTUYBPGFPSRH-UHTWSYAYSA-N

>  <CanonSites upload name>  (154) 
nan

>  <tags>  (154) 
['iter2']

>  <energy_score>  (154) 
15.781863

>  <original SMILES>  (154) 
O=C1NC[C@@H]2CCN(C(=O)[C@H]3CSc4ccccc43)C[C@@H]12

>  <ref_mols>  (154) 
A4386a

>  <Pose>  (154) 
nan

>  <distance_score>  (154) 
1.438549

>  <ConformerSites upload name>  (154) 
nan

>  <HIPPO Pose ID>  (154) 
292928

>  <Crystalforms alias>  (154) 
nan

>  <original ID>  (154) 
GETTUYBPGFPSRH-UHTWSYAYSA-N

>  <CanonSites alias>  (154) 
nan

>  <CrystalformSites alias>  (154) 
nan

>  <ref_pdb>  (154) 
A4386a

>  <CanonSites short tag>  (154) 
nan

>  <Quatassemblies alias>  (154) 
nan

>  <HIPPO Compound ID>  (154) 
122846

>  <CrystalformSites short tag>  (154) 
nan

$$$$
OWXSCDCPVZGTHY-NTZNESFSSA-N
     RDKit          3D

 21 24  0  0  0  0  0  0  0  0999 V2000
    9.7502   15.3507   19.4111 O   0  0  0  0  0  0  0  0  0  0  0  0
   10.0362   15.5106   20.5770 C   0  0  0  0  0  0  0  0  0  0  0  0
   10.8144   14.6944   21.3890 N   0  0  0  0  0  0  0  0  0  0  0  0
   11.1895   15.4488   22.5608 C   0  0  1  0  0  0  0  0  0  0  0  0
   11.0978   16.8615   22.0425 C   0  0  0  0  0  0  0  0  0  0  0  0
    9.7247   16.7012   21.4230 C   0  0  2  0  0  0  0  0  0  0  0  0
    8.7234   16.3235   22.5466 C   0  0  0  0  0  0  0  0  0  0  0  0
    8.6960   14.9808   23.2999 N   0  0  0  0  0  0  0  0  0  0  0  0
    7.9731   14.5818   24.4784 C   0  0  0  0  0  0  0  0  0  0  0  0
    7.2800   15.2236   25.2215 O   0  0  0  0  0  0  0  0  0  0  0  0
    8.2840   13.0598   24.8269 C   0  0  2  0  0  0  0  0  0  0  0  0
    8.5555   12.2731   23.5388 C   0  0  0  0  0  0  0  0  0  0  0  0
    9.1509   10.9074   23.7778 C   0  0  0  0  0  0  0  0  0  0  0  0
    8.0493    9.7953   24.6438 S   0  0  0  0  0  0  0  0  0  0  0  0
    7.0820   10.9154   25.6321 C   0  0  0  0  0  0  0  0  0  0  0  0
    6.1080   10.2670   26.4189 C   0  0  0  0  0  0  0  0  0  0  0  0
    5.3310   10.9683   27.3299 C   0  0  0  0  0  0  0  0  0  0  0  0
    5.5387   12.3271   27.4768 C   0  0  0  0  0  0  0  0  0  0  0  0
    6.4931   12.9811   26.6889 C   0  0  0  0  0  0  0  0  0  0  0  0
    7.2523   12.3139   25.7052 C   0  0  0  0  0  0  0  0  0  0  0  0
   10.1070   15.4062   23.6747 C   0  0  0  0  0  0  0  0  0  0  0  0
  1  2  2  0
  2  3  1  0
  3  4  1  0
  4  5  1  0
  5  6  1  0
  6  7  1  1
  7  8  1  0
  8  9  1  0
  9 10  2  0
 11  9  1  6
 11 12  1  0
 12 13  1  0
 13 14  1  0
 14 15  1  0
 15 16  2  0
 16 17  1  0
 17 18  2  0
 18 19  1  0
 19 20  2  0
  8 21  1  0
  6  2  1  0
 20 11  1  0
  4 21  1  1
 20 15  1  0
M  END
>  <alias>  (155) 
None

>  <Experiment code>  (155) 
nan

>  <CrystalformSites upload name>  (155) 
nan

>  <inchikey>  (155) 
OWXSCDCPVZGTHY-NTZNESFSSA-N

>  <Crystalforms upload name>  (155) 
nan

>  <Quatassemblies upload name>  (155) 
nan

>  <ConformerSites alias>  (155) 
nan

>  <ConformerSites short tag>  (155) 
nan

>  <Crystalforms short tag>  (155) 
nan

>  <Centroid res>  (155) 
nan

>  <Quatassemblies short tag>  (155) 
nan

>  <observation_longname>  (155) 
nan

>  <name>  (155) 
OWXSCDCPVZGTHY-NTZNESFSSA-N

>  <CanonSites upload name>  (155) 
nan

>  <tags>  (155) 
['iter2']

>  <energy_score>  (155) 
-21.357943

>  <original SMILES>  (155) 
O=C1N[C@H]2C[C@@H]1CN(C(=O)[C@@H]1CCSc3ccccc31)C2

>  <ref_mols>  (155) 
A4386a

>  <Pose>  (155) 
nan

>  <distance_score>  (155) 
1.504266

>  <ConformerSites upload name>  (155) 
nan

>  <HIPPO Pose ID>  (155) 
292963

>  <Crystalforms alias>  (155) 
nan

>  <original ID>  (155) 
OWXSCDCPVZGTHY-NTZNESFSSA-N

>  <CanonSites alias>  (155) 
nan

>  <CrystalformSites alias>  (155) 
nan

>  <ref_pdb>  (155) 
A4386a

>  <CanonSites short tag>  (155) 
nan

>  <Quatassemblies alias>  (155) 
nan

>  <HIPPO Compound ID>  (155) 
122661

>  <CrystalformSites short tag>  (155) 
nan

$$$$
OWXSCDCPVZGTHY-DMDPSCGWSA-N
     RDKit          3D

 21 24  0  0  0  0  0  0  0  0999 V2000
    9.7025   17.5422   19.9593 O   0  0  0  0  0  0  0  0  0  0  0  0
   10.0559   16.8023   20.8496 C   0  0  0  0  0  0  0  0  0  0  0  0
   10.5882   17.1449   22.0867 N   0  0  0  0  0  0  0  0  0  0  0  0
   10.7514   15.9439   22.8788 C   0  0  2  0  0  0  0  0  0  0  0  0
   11.0682   14.9470   21.7851 C   0  0  0  0  0  0  0  0  0  0  0  0
    9.8782   15.3184   20.9078 C   0  0  1  0  0  0  0  0  0  0  0  0
    8.5726   15.1741   21.7226 C   0  0  0  0  0  0  0  0  0  0  0  0
    8.6671   14.2600   22.9053 N   0  0  0  0  0  0  0  0  0  0  0  0
    7.6588   13.7880   23.8023 C   0  0  0  0  0  0  0  0  0  0  0  0
    6.4973   14.0759   23.8896 O   0  0  0  0  0  0  0  0  0  0  0  0
    8.2909   12.6477   24.6880 C   0  0  2  0  0  0  0  0  0  0  0  0
    8.8014   11.6259   23.6576 C   0  0  0  0  0  0  0  0  0  0  0  0
    9.1005   10.2141   24.0679 C   0  0  0  0  0  0  0  0  0  0  0  0
    7.7366    9.4166   24.9030 S   0  0  0  0  0  0  0  0  0  0  0  0
    6.9738   10.7342   25.8063 C   0  0  0  0  0  0  0  0  0  0  0  0
    5.9687   10.3246   26.7029 C   0  0  0  0  0  0  0  0  0  0  0  0
    5.3264   11.2358   27.5355 C   0  0  0  0  0  0  0  0  0  0  0  0
    5.6847   12.5730   27.4824 C   0  0  0  0  0  0  0  0  0  0  0  0
    6.6622   12.9931   26.5797 C   0  0  0  0  0  0  0  0  0  0  0  0
    7.3009   12.0905   25.7010 C   0  0  0  0  0  0  0  0  0  0  0  0
    9.3933   15.4898   23.5164 C   0  0  0  0  0  0  0  0  0  0  0  0
  1  2  2  0
  2  3  1  0
  3  4  1  0
  4  5  1  0
  5  6  1  0
  6  7  1  1
  7  8  1  0
  8  9  1  0
  9 10  2  0
 11  9  1  6
 11 12  1  0
 12 13  1  0
 13 14  1  0
 14 15  1  0
 15 16  2  0
 16 17  1  0
 17 18  2  0
 18 19  1  0
 19 20  2  0
  8 21  1  0
  6  2  1  0
 20 11  1  0
  4 21  1  6
 20 15  1  0
M  END
>  <alias>  (156) 
None

>  <Experiment code>  (156) 
nan

>  <CrystalformSites upload name>  (156) 
nan

>  <inchikey>  (156) 
OWXSCDCPVZGTHY-DMDPSCGWSA-N

>  <Crystalforms upload name>  (156) 
nan

>  <Quatassemblies upload name>  (156) 
nan

>  <ConformerSites alias>  (156) 
nan

>  <ConformerSites short tag>  (156) 
nan

>  <Crystalforms short tag>  (156) 
nan

>  <Centroid res>  (156) 
nan

>  <Quatassemblies short tag>  (156) 
nan

>  <observation_longname>  (156) 
nan

>  <name>  (156) 
OWXSCDCPVZGTHY-DMDPSCGWSA-N

>  <CanonSites upload name>  (156) 
nan

>  <tags>  (156) 
['iter2']

>  <energy_score>  (156) 
-74.76644

>  <original SMILES>  (156) 
O=C1N[C@@H]2C[C@H]1CN(C(=O)[C@@H]1CCSc3ccccc31)C2

>  <ref_mols>  (156) 
A4386a

>  <Pose>  (156) 
nan

>  <distance_score>  (156) 
1.509164

>  <ConformerSites upload name>  (156) 
nan

>  <HIPPO Pose ID>  (156) 
292964

>  <Crystalforms alias>  (156) 
nan

>  <original ID>  (156) 
OWXSCDCPVZGTHY-DMDPSCGWSA-N

>  <CanonSites alias>  (156) 
nan

>  <CrystalformSites alias>  (156) 
nan

>  <ref_pdb>  (156) 
A4386a

>  <CanonSites short tag>  (156) 
nan

>  <Quatassemblies alias>  (156) 
nan

>  <HIPPO Compound ID>  (156) 
122661

>  <CrystalformSites short tag>  (156) 
nan

$$$$
OWXSCDCPVZGTHY-NTZNESFSSA-N
     RDKit          3D

 21 24  0  0  0  0  0  0  0  0999 V2000
    9.2124   15.6749   19.5506 O   0  0  0  0  0  0  0  0  0  0  0  0
    9.6861   15.6475   20.6647 C   0  0  0  0  0  0  0  0  0  0  0  0
   10.4900   14.6615   21.2187 N   0  0  0  0  0  0  0  0  0  0  0  0
   11.1788   15.2378   22.3423 C   0  0  1  0  0  0  0  0  0  0  0  0
   11.1539   16.7061   21.9920 C   0  0  0  0  0  0  0  0  0  0  0  0
    9.6771   16.7516   21.6706 C   0  0  2  0  0  0  0  0  0  0  0  0
    8.9250   16.3710   22.9715 C   0  0  0  0  0  0  0  0  0  0  0  0
    8.8267   14.9679   23.5627 N   0  0  0  0  0  0  0  0  0  0  0  0
    8.3140   14.5193   24.8229 C   0  0  0  0  0  0  0  0  0  0  0  0
    7.9147   15.1451   25.7702 O   0  0  0  0  0  0  0  0  0  0  0  0
    8.3607   12.9460   24.9301 C   0  0  2  0  0  0  0  0  0  0  0  0
    8.5474   12.2411   23.5817 C   0  0  0  0  0  0  0  0  0  0  0  0
    9.1249   10.8509   23.7477 C   0  0  0  0  0  0  0  0  0  0  0  0
    8.1055    9.7306   24.7096 S   0  0  0  0  0  0  0  0  0  0  0  0
    7.0785   10.8419   25.6485 C   0  0  0  0  0  0  0  0  0  0  0  0
    6.0662   10.1944   26.3830 C   0  0  0  0  0  0  0  0  0  0  0  0
    5.1742   10.9100   27.1686 C   0  0  0  0  0  0  0  0  0  0  0  0
    5.2743   12.2883   27.2078 C   0  0  0  0  0  0  0  0  0  0  0  0
    6.2727   12.9430   26.4770 C   0  0  0  0  0  0  0  0  0  0  0  0
    7.2089   12.2471   25.6871 C   0  0  0  0  0  0  0  0  0  0  0  0
   10.3483   15.1292   23.6442 C   0  0  0  0  0  0  0  0  0  0  0  0
  1  2  2  0
  2  3  1  0
  3  4  1  0
  4  5  1  0
  5  6  1  0
  6  7  1  1
  7  8  1  0
  8  9  1  0
  9 10  2  0
 11  9  1  6
 11 12  1  0
 12 13  1  0
 13 14  1  0
 14 15  1  0
 15 16  2  0
 16 17  1  0
 17 18  2  0
 18 19  1  0
 19 20  2  0
  8 21  1  0
  6  2  1  0
 20 11  1  0
  4 21  1  1
 20 15  1  0
M  END
>  <alias>  (157) 
None

>  <Experiment code>  (157) 
nan

>  <CrystalformSites upload name>  (157) 
nan

>  <inchikey>  (157) 
OWXSCDCPVZGTHY-NTZNESFSSA-N

>  <Crystalforms upload name>  (157) 
nan

>  <Quatassemblies upload name>  (157) 
nan

>  <ConformerSites alias>  (157) 
nan

>  <ConformerSites short tag>  (157) 
nan

>  <Crystalforms short tag>  (157) 
nan

>  <Centroid res>  (157) 
nan

>  <Quatassemblies short tag>  (157) 
nan

>  <observation_longname>  (157) 
nan

>  <name>  (157) 
OWXSCDCPVZGTHY-NTZNESFSSA-N

>  <CanonSites upload name>  (157) 
nan

>  <tags>  (157) 
['iter2']

>  <energy_score>  (157) 
-15.746689

>  <original SMILES>  (157) 
O=C1N[C@H]2C[C@@H]1CN(C(=O)[C@@H]1CCSc3ccccc31)C2

>  <ref_mols>  (157) 
A4386a

>  <Pose>  (157) 
nan

>  <distance_score>  (157) 
1.560507

>  <ConformerSites upload name>  (157) 
nan

>  <HIPPO Pose ID>  (157) 
292965

>  <Crystalforms alias>  (157) 
nan

>  <original ID>  (157) 
OWXSCDCPVZGTHY-NTZNESFSSA-N

>  <CanonSites alias>  (157) 
nan

>  <CrystalformSites alias>  (157) 
nan

>  <ref_pdb>  (157) 
A4386a

>  <CanonSites short tag>  (157) 
nan

>  <Quatassemblies alias>  (157) 
nan

>  <HIPPO Compound ID>  (157) 
122661

>  <CrystalformSites short tag>  (157) 
nan

$$$$
OWXSCDCPVZGTHY-DMDPSCGWSA-N
     RDKit          3D

 21 24  0  0  0  0  0  0  0  0999 V2000
    9.2677   15.9114   19.1296 O   0  0  0  0  0  0  0  0  0  0  0  0
    9.7733   15.9989   20.2268 C   0  0  0  0  0  0  0  0  0  0  0  0
    9.6493   17.0485   21.1146 N   0  0  0  0  0  0  0  0  0  0  0  0
   10.7022   16.9327   22.0660 C   0  0  2  0  0  0  0  0  0  0  0  0
   11.7550   16.1567   21.3369 C   0  0  0  0  0  0  0  0  0  0  0  0
   10.8109   15.1018   20.8405 C   0  0  1  0  0  0  0  0  0  0  0  0
   10.3489   14.3619   22.1109 C   0  0  0  0  0  0  0  0  0  0  0  0
    9.4299   14.7908   23.2446 N   0  0  0  0  0  0  0  0  0  0  0  0
    8.0625   15.2104   23.2311 C   0  0  0  0  0  0  0  0  0  0  0  0
    7.3184   15.4191   22.3107 O   0  0  0  0  0  0  0  0  0  0  0  0
    7.5348   15.2801   24.7083 C   0  0  2  0  0  0  0  0  0  0  0  0
    8.5779   15.4122   25.8357 C   0  0  0  0  0  0  0  0  0  0  0  0
    9.5420   14.2262   25.9811 C   0  0  0  0  0  0  0  0  0  0  0  0
    8.9655   12.6097   25.3356 S   0  0  0  0  0  0  0  0  0  0  0  0
    7.2196   12.8694   25.4854 C   0  0  0  0  0  0  0  0  0  0  0  0
    6.4419   11.8560   26.0550 C   0  0  0  0  0  0  0  0  0  0  0  0
    5.0992   12.0874   26.3376 C   0  0  0  0  0  0  0  0  0  0  0  0
    4.5200   13.3070   25.9895 C   0  0  0  0  0  0  0  0  0  0  0  0
    5.2844   14.3045   25.3767 C   0  0  0  0  0  0  0  0  0  0  0  0
    6.6509   14.1076   25.1390 C   0  0  0  0  0  0  0  0  0  0  0  0
   10.3560   16.0136   23.2453 C   0  0  0  0  0  0  0  0  0  0  0  0
  1  2  2  0
  2  3  1  0
  3  4  1  0
  4  5  1  0
  5  6  1  0
  6  7  1  1
  7  8  1  0
  8  9  1  0
  9 10  2  0
 11  9  1  6
 11 12  1  0
 12 13  1  0
 13 14  1  0
 14 15  1  0
 15 16  2  0
 16 17  1  0
 17 18  2  0
 18 19  1  0
 19 20  2  0
  8 21  1  0
  6  2  1  0
 20 11  1  0
  4 21  1  1
 20 15  1  0
M  END
>  <alias>  (158) 
None

>  <Experiment code>  (158) 
nan

>  <CrystalformSites upload name>  (158) 
nan

>  <inchikey>  (158) 
OWXSCDCPVZGTHY-DMDPSCGWSA-N

>  <Crystalforms upload name>  (158) 
nan

>  <Quatassemblies upload name>  (158) 
nan

>  <ConformerSites alias>  (158) 
nan

>  <ConformerSites short tag>  (158) 
nan

>  <Crystalforms short tag>  (158) 
nan

>  <Centroid res>  (158) 
nan

>  <Quatassemblies short tag>  (158) 
nan

>  <observation_longname>  (158) 
nan

>  <name>  (158) 
OWXSCDCPVZGTHY-DMDPSCGWSA-N

>  <CanonSites upload name>  (158) 
nan

>  <tags>  (158) 
['iter2']

>  <energy_score>  (158) 
25.491063

>  <original SMILES>  (158) 
O=C1N[C@@H]2C[C@H]1CN(C(=O)[C@@H]1CCSc3ccccc31)C2

>  <ref_mols>  (158) 
A4386a

>  <Pose>  (158) 
nan

>  <distance_score>  (158) 
2.371023

>  <ConformerSites upload name>  (158) 
nan

>  <HIPPO Pose ID>  (158) 
292966

>  <Crystalforms alias>  (158) 
nan

>  <original ID>  (158) 
OWXSCDCPVZGTHY-DMDPSCGWSA-N

>  <CanonSites alias>  (158) 
nan

>  <CrystalformSites alias>  (158) 
nan

>  <ref_pdb>  (158) 
A4386a

>  <CanonSites short tag>  (158) 
nan

>  <Quatassemblies alias>  (158) 
nan

>  <HIPPO Compound ID>  (158) 
122661

>  <CrystalformSites short tag>  (158) 
nan

$$$$
HOIGWFJTYNXUKQ-OAHLLOKOSA-N
     RDKit          3D

 21 22  0  0  0  0  0  0  0  0999 V2000
    8.9430    9.3452   23.7866 C   0  0  0  0  0  0  0  0  0  0  0  0
    8.4605   11.0680   24.0722 S   0  0  0  0  0  0  0  0  0  0  0  0
    7.1908   11.0235   25.3432 C   0  0  0  0  0  0  0  0  0  0  0  0
    6.7437    9.8205   25.8963 C   0  0  0  0  0  0  0  0  0  0  0  0
    5.7503    9.7875   26.8844 C   0  0  0  0  0  0  0  0  0  0  0  0
    5.2029   10.9602   27.3715 C   0  0  0  0  0  0  0  0  0  0  0  0
    5.6075   12.1655   26.8230 C   0  0  0  0  0  0  0  0  0  0  0  0
    6.5742   12.2139   25.7931 C   0  0  0  0  0  0  0  0  0  0  0  0
    6.6968   13.5435   25.0850 C   0  0  0  0  0  0  0  0  0  0  0  0
    8.0935   14.0979   24.8319 C   0  0  0  0  0  0  0  0  0  0  0  0
    8.9886   13.9458   25.6146 O   0  0  0  0  0  0  0  0  0  0  0  0
    8.0372   14.8419   23.6010 N   0  0  0  0  0  0  0  0  0  0  0  0
    9.0198   15.7276   22.9613 C   0  0  2  0  0  0  0  0  0  0  0  0
    8.0231   16.7215   22.2017 C   0  0  0  0  0  0  0  0  0  0  0  0
    8.6735   17.8303   21.5338 N   0  0  0  0  0  0  0  0  0  0  0  0
    6.8639   16.3805   22.2129 O   0  0  0  0  0  0  0  0  0  0  0  0
    9.8394   14.9691   21.9109 C   0  0  0  0  0  0  0  0  0  0  0  0
   10.9096   14.1049   22.5592 C   0  0  0  0  0  0  0  0  0  0  0  0
   11.7500   14.8932   23.5531 C   0  0  0  0  0  0  0  0  0  0  0  0
   10.9611   15.5474   24.5924 N   0  0  0  0  0  0  0  0  0  0  0  0
    9.9321   16.4098   23.9943 C   0  0  0  0  0  0  0  0  0  0  0  0
  1  2  1  0
  2  3  1  0
  3  4  2  0
  4  5  1  0
  5  6  2  0
  6  7  1  0
  7  8  2  0
  8  9  1  0
  9 10  1  0
 10 11  2  0
 10 12  1  0
 13 12  1  1
 13 14  1  0
 14 15  1  0
 14 16  2  0
 13 17  1  0
 17 18  1  0
 18 19  1  0
 19 20  1  0
 20 21  1  0
  8  3  1  0
 21 13  1  0
M  END
>  <alias>  (159) 
None

>  <Experiment code>  (159) 
nan

>  <CrystalformSites upload name>  (159) 
nan

>  <inchikey>  (159) 
HOIGWFJTYNXUKQ-OAHLLOKOSA-N

>  <Crystalforms upload name>  (159) 
nan

>  <Quatassemblies upload name>  (159) 
nan

>  <ConformerSites alias>  (159) 
nan

>  <ConformerSites short tag>  (159) 
nan

>  <Crystalforms short tag>  (159) 
nan

>  <Centroid res>  (159) 
nan

>  <Quatassemblies short tag>  (159) 
nan

>  <observation_longname>  (159) 
nan

>  <name>  (159) 
HOIGWFJTYNXUKQ-OAHLLOKOSA-N

>  <CanonSites upload name>  (159) 
nan

>  <tags>  (159) 
['iter2']

>  <energy_score>  (159) 
130.593748

>  <original SMILES>  (159) 
CSc1ccccc1CC(=O)N[C@]1(C(N)=O)CCCNC1

>  <ref_mols>  (159) 
A4386a

>  <Pose>  (159) 
nan

>  <distance_score>  (159) 
2.171316

>  <ConformerSites upload name>  (159) 
nan

>  <HIPPO Pose ID>  (159) 
292967

>  <Crystalforms alias>  (159) 
nan

>  <original ID>  (159) 
HOIGWFJTYNXUKQ-OAHLLOKOSA-N

>  <CanonSites alias>  (159) 
nan

>  <CrystalformSites alias>  (159) 
nan

>  <ref_pdb>  (159) 
A4386a

>  <CanonSites short tag>  (159) 
nan

>  <Quatassemblies alias>  (159) 
nan

>  <HIPPO Compound ID>  (159) 
122945

>  <CrystalformSites short tag>  (159) 
nan

$$$$
ZPPSFBXZVAZURQ-ABAIWWIYSA-N
     RDKit          3D

 21 23  0  0  0  0  0  0  0  0999 V2000
   11.1624   14.6370   19.4208 N   0  0  0  0  0  0  0  0  0  0  0  0
   10.5716   15.9006   19.7980 C   0  0  0  0  0  0  0  0  0  0  0  0
   10.4655   16.9273   19.1844 O   0  0  0  0  0  0  0  0  0  0  0  0
   10.0785   15.9517   21.3151 C   0  0  2  0  0  0  0  0  0  0  0  0
    9.5296   17.3139   21.5722 N   0  0  0  0  0  0  0  0  0  0  0  0
   11.1683   15.7301   22.3533 C   0  0  0  0  0  0  0  0  0  0  0  0
   10.4889   15.7203   23.7236 C   0  0  0  0  0  0  0  0  0  0  0  0
    9.0158   15.2669   23.5828 C   0  0  0  0  0  0  0  0  0  0  0  0
    8.9426   13.9811   22.7844 N   0  0  0  0  0  0  0  0  0  0  0  0
    7.9176   13.1389   23.3024 C   0  0  0  0  0  0  0  0  0  0  0  0
    6.7570   13.0543   23.0095 O   0  0  0  0  0  0  0  0  0  0  0  0
    8.4860   12.2864   24.4515 C   0  0  2  0  0  0  0  0  0  0  0  0
    9.1166   11.0060   23.8926 C   0  0  0  0  0  0  0  0  0  0  0  0
    8.2212    9.5663   24.5267 S   0  0  0  0  0  0  0  0  0  0  0  0
    7.1659   10.5386   25.5433 C   0  0  0  0  0  0  0  0  0  0  0  0
    6.1560   10.0557   26.3622 C   0  0  0  0  0  0  0  0  0  0  0  0
    5.4172   10.9505   27.1352 C   0  0  0  0  0  0  0  0  0  0  0  0
    5.6879   12.3195   27.0723 C   0  0  0  0  0  0  0  0  0  0  0  0
    6.6925   12.8011   26.2309 C   0  0  0  0  0  0  0  0  0  0  0  0
    7.4295   11.9012   25.4606 C   0  0  0  0  0  0  0  0  0  0  0  0
    8.9266   14.9614   21.6202 C   0  0  0  0  0  0  0  0  0  0  0  0
  1  2  1  0
  2  3  2  0
  2  4  1  0
  4  5  1  1
  4  6  1  0
  6  7  1  0
  7  8  1  0
  8  9  1  0
  9 10  1  0
 10 11  2  0
 12 10  1  6
 12 13  1  0
 13 14  1  0
 14 15  1  0
 15 16  2  0
 16 17  1  0
 17 18  2  0
 18 19  1  0
 19 20  2  0
  9 21  1  0
 21  4  1  0
 20 12  1  0
 20 15  1  0
M  END
>  <alias>  (160) 
None

>  <Experiment code>  (160) 
nan

>  <CrystalformSites upload name>  (160) 
nan

>  <inchikey>  (160) 
ZPPSFBXZVAZURQ-ABAIWWIYSA-N

>  <Crystalforms upload name>  (160) 
nan

>  <Quatassemblies upload name>  (160) 
nan

>  <ConformerSites alias>  (160) 
nan

>  <ConformerSites short tag>  (160) 
nan

>  <Crystalforms short tag>  (160) 
nan

>  <Centroid res>  (160) 
nan

>  <Quatassemblies short tag>  (160) 
nan

>  <observation_longname>  (160) 
nan

>  <name>  (160) 
ZPPSFBXZVAZURQ-ABAIWWIYSA-N

>  <CanonSites upload name>  (160) 
nan

>  <tags>  (160) 
['iter2']

>  <energy_score>  (160) 
165.638086

>  <original SMILES>  (160) 
NC(=O)[C@]1(N)CCCN(C(=O)[C@@H]2CSc3ccccc32)C1

>  <ref_mols>  (160) 
A4386a

>  <Pose>  (160) 
nan

>  <distance_score>  (160) 
1.073838

>  <ConformerSites upload name>  (160) 
nan

>  <HIPPO Pose ID>  (160) 
292998

>  <Crystalforms alias>  (160) 
nan

>  <original ID>  (160) 
ZPPSFBXZVAZURQ-ABAIWWIYSA-N

>  <CanonSites alias>  (160) 
nan

>  <CrystalformSites alias>  (160) 
nan

>  <ref_pdb>  (160) 
A4386a

>  <CanonSites short tag>  (160) 
nan

>  <Quatassemblies alias>  (160) 
nan

>  <HIPPO Compound ID>  (160) 
122880

>  <CrystalformSites short tag>  (160) 
nan

$$$$
ZPPSFBXZVAZURQ-IAQYHMDHSA-N
     RDKit          3D

 21 23  0  0  0  0  0  0  0  0999 V2000
    3.6257   14.6585   20.6774 N   0  0  0  0  0  0  0  0  0  0  0  0
    3.3900   15.3614   21.9166 C   0  0  0  0  0  0  0  0  0  0  0  0
    2.4587   16.0275   22.2720 O   0  0  0  0  0  0  0  0  0  0  0  0
    4.6565   15.1665   22.8083 C   0  0  1  0  0  0  0  0  0  0  0  0
    5.3530   13.8812   22.3678 N   0  0  0  0  0  0  0  0  0  0  0  0
    5.6435   16.3132   22.6032 C   0  0  0  0  0  0  0  0  0  0  0  0
    6.5110   16.5428   23.8201 C   0  0  0  0  0  0  0  0  0  0  0  0
    5.7262   16.2009   25.0784 C   0  0  0  0  0  0  0  0  0  0  0  0
    5.4183   14.7005   25.1609 N   0  0  0  0  0  0  0  0  0  0  0  0
    5.4658   14.2653   26.5047 C   0  0  0  0  0  0  0  0  0  0  0  0
    4.5983   14.2001   27.3384 O   0  0  0  0  0  0  0  0  0  0  0  0
    6.8714   13.7075   26.8398 C   0  0  2  0  0  0  0  0  0  0  0  0
    8.1448   14.4065   26.3249 C   0  0  0  0  0  0  0  0  0  0  0  0
    8.8494   13.4605   24.9396 S   0  0  0  0  0  0  0  0  0  0  0  0
    7.9192   12.0307   25.3619 C   0  0  0  0  0  0  0  0  0  0  0  0
    8.1042   10.7691   24.8283 C   0  0  0  0  0  0  0  0  0  0  0  0
    7.2897    9.7340   25.2748 C   0  0  0  0  0  0  0  0  0  0  0  0
    6.2791    9.9707   26.2136 C   0  0  0  0  0  0  0  0  0  0  0  0
    6.1045   11.2445   26.7505 C   0  0  0  0  0  0  0  0  0  0  0  0
    6.9478   12.2731   26.3358 C   0  0  0  0  0  0  0  0  0  0  0  0
    4.2549   15.1156   24.3006 C   0  0  0  0  0  0  0  0  0  0  0  0
  1  2  1  0
  2  3  2  0
  2  4  1  0
  4  5  1  6
  4  6  1  0
  6  7  1  0
  7  8  1  0
  8  9  1  0
  9 10  1  0
 10 11  2  0
 12 10  1  6
 12 13  1  0
 13 14  1  0
 14 15  1  0
 15 16  2  0
 16 17  1  0
 17 18  2  0
 18 19  1  0
 19 20  2  0
  9 21  1  0
 21  4  1  0
 20 12  1  0
 20 15  1  0
M  END
>  <alias>  (161) 
None

>  <Experiment code>  (161) 
nan

>  <CrystalformSites upload name>  (161) 
nan

>  <inchikey>  (161) 
ZPPSFBXZVAZURQ-IAQYHMDHSA-N

>  <Crystalforms upload name>  (161) 
nan

>  <Quatassemblies upload name>  (161) 
nan

>  <ConformerSites alias>  (161) 
nan

>  <ConformerSites short tag>  (161) 
nan

>  <Crystalforms short tag>  (161) 
nan

>  <Centroid res>  (161) 
nan

>  <Quatassemblies short tag>  (161) 
nan

>  <observation_longname>  (161) 
nan

>  <name>  (161) 
ZPPSFBXZVAZURQ-IAQYHMDHSA-N

>  <CanonSites upload name>  (161) 
nan

>  <tags>  (161) 
['iter2']

>  <energy_score>  (161) 
25.05786

>  <original SMILES>  (161) 
NC(=O)[C@@]1(N)CCCN(C(=O)[C@@H]2CSc3ccccc32)C1

>  <ref_mols>  (161) 
A4386a

>  <Pose>  (161) 
nan

>  <distance_score>  (161) 
4.662507

>  <ConformerSites upload name>  (161) 
nan

>  <HIPPO Pose ID>  (161) 
292999

>  <Crystalforms alias>  (161) 
nan

>  <original ID>  (161) 
ZPPSFBXZVAZURQ-IAQYHMDHSA-N

>  <CanonSites alias>  (161) 
nan

>  <CrystalformSites alias>  (161) 
nan

>  <ref_pdb>  (161) 
A4386a

>  <CanonSites short tag>  (161) 
nan

>  <Quatassemblies alias>  (161) 
nan

>  <HIPPO Compound ID>  (161) 
122880

>  <CrystalformSites short tag>  (161) 
nan

$$$$
ZPPSFBXZVAZURQ-NHYWBVRUSA-N
     RDKit          3D

 21 23  0  0  0  0  0  0  0  0999 V2000
    9.4519   15.9956   19.7094 N   0  0  0  0  0  0  0  0  0  0  0  0
    9.0241   15.4376   20.9815 C   0  0  0  0  0  0  0  0  0  0  0  0
    8.2817   14.5276   21.2252 O   0  0  0  0  0  0  0  0  0  0  0  0
    9.8219   16.1917   22.1039 C   0  0  2  0  0  0  0  0  0  0  0  0
   10.0108   17.5781   21.5840 N   0  0  0  0  0  0  0  0  0  0  0  0
   11.2011   15.5450   22.2223 C   0  0  0  0  0  0  0  0  0  0  0  0
   11.0392   14.2788   23.0358 C   0  0  0  0  0  0  0  0  0  0  0  0
   10.1340   14.5551   24.2358 C   0  0  0  0  0  0  0  0  0  0  0  0
    8.6438   14.7438   23.9298 N   0  0  0  0  0  0  0  0  0  0  0  0
    7.8552   14.3487   25.0559 C   0  0  0  0  0  0  0  0  0  0  0  0
    7.4551   14.9898   25.9922 O   0  0  0  0  0  0  0  0  0  0  0  0
    7.4307   12.8567   24.8662 C   0  0  1  0  0  0  0  0  0  0  0  0
    8.5470   11.8373   24.6292 C   0  0  0  0  0  0  0  0  0  0  0  0
    7.8597   10.1860   24.9147 S   0  0  0  0  0  0  0  0  0  0  0  0
    6.6162   10.8416   25.9807 C   0  0  0  0  0  0  0  0  0  0  0  0
    5.7735   10.0906   26.7863 C   0  0  0  0  0  0  0  0  0  0  0  0
    4.8450   10.7445   27.5908 C   0  0  0  0  0  0  0  0  0  0  0  0
    4.7439   12.1363   27.5482 C   0  0  0  0  0  0  0  0  0  0  0  0
    5.5714   12.8830   26.7043 C   0  0  0  0  0  0  0  0  0  0  0  0
    6.5358   12.2385   25.9328 C   0  0  0  0  0  0  0  0  0  0  0  0
    9.1287   16.1031   23.4953 C   0  0  0  0  0  0  0  0  0  0  0  0
  1  2  1  0
  2  3  2  0
  2  4  1  0
  4  5  1  6
  4  6  1  0
  6  7  1  0
  7  8  1  0
  8  9  1  0
  9 10  1  0
 10 11  2  0
 12 10  1  1
 12 13  1  0
 13 14  1  0
 14 15  1  0
 15 16  2  0
 16 17  1  0
 17 18  2  0
 18 19  1  0
 19 20  2  0
  9 21  1  0
 21  4  1  0
 20 12  1  0
 20 15  1  0
M  END
>  <alias>  (162) 
None

>  <Experiment code>  (162) 
nan

>  <CrystalformSites upload name>  (162) 
nan

>  <inchikey>  (162) 
ZPPSFBXZVAZURQ-NHYWBVRUSA-N

>  <Crystalforms upload name>  (162) 
nan

>  <Quatassemblies upload name>  (162) 
nan

>  <ConformerSites alias>  (162) 
nan

>  <ConformerSites short tag>  (162) 
nan

>  <Crystalforms short tag>  (162) 
nan

>  <Centroid res>  (162) 
nan

>  <Quatassemblies short tag>  (162) 
nan

>  <observation_longname>  (162) 
nan

>  <name>  (162) 
ZPPSFBXZVAZURQ-NHYWBVRUSA-N

>  <CanonSites upload name>  (162) 
nan

>  <tags>  (162) 
['iter2']

>  <energy_score>  (162) 
-39.796438

>  <original SMILES>  (162) 
NC(=O)[C@]1(N)CCCN(C(=O)[C@H]2CSc3ccccc32)C1

>  <ref_mols>  (162) 
A4386a

>  <Pose>  (162) 
nan

>  <distance_score>  (162) 
1.920251

>  <ConformerSites upload name>  (162) 
nan

>  <HIPPO Pose ID>  (162) 
293000

>  <Crystalforms alias>  (162) 
nan

>  <original ID>  (162) 
ZPPSFBXZVAZURQ-NHYWBVRUSA-N

>  <CanonSites alias>  (162) 
nan

>  <CrystalformSites alias>  (162) 
nan

>  <ref_pdb>  (162) 
A4386a

>  <CanonSites short tag>  (162) 
nan

>  <Quatassemblies alias>  (162) 
nan

>  <HIPPO Compound ID>  (162) 
122880

>  <CrystalformSites short tag>  (162) 
nan

$$$$
ZPPSFBXZVAZURQ-XHDPSFHLSA-N
     RDKit          3D

 21 23  0  0  0  0  0  0  0  0999 V2000
    9.8796   16.7635   19.1361 N   0  0  0  0  0  0  0  0  0  0  0  0
    9.7028   17.2268   20.4968 C   0  0  0  0  0  0  0  0  0  0  0  0
    9.5214   18.3275   20.9277 O   0  0  0  0  0  0  0  0  0  0  0  0
    9.8977   16.0215   21.4430 C   0  0  1  0  0  0  0  0  0  0  0  0
    9.5921   14.8001   20.6381 N   0  0  0  0  0  0  0  0  0  0  0  0
   11.3215   15.9246   21.9605 C   0  0  0  0  0  0  0  0  0  0  0  0
   11.3209   14.9198   23.1040 C   0  0  0  0  0  0  0  0  0  0  0  0
   10.0575   15.0593   23.9736 C   0  0  0  0  0  0  0  0  0  0  0  0
    8.6873   14.8054   23.3064 N   0  0  0  0  0  0  0  0  0  0  0  0
    7.7226   14.4281   24.2902 C   0  0  0  0  0  0  0  0  0  0  0  0
    6.9664   15.0997   24.9384 O   0  0  0  0  0  0  0  0  0  0  0  0
    7.6640   12.8865   24.3723 C   0  0  1  0  0  0  0  0  0  0  0  0
    8.9447   12.0648   24.2024 C   0  0  0  0  0  0  0  0  0  0  0  0
    8.4420   10.3345   24.4413 S   0  0  0  0  0  0  0  0  0  0  0  0
    7.1221   10.8284   25.5119 C   0  0  0  0  0  0  0  0  0  0  0  0
    6.3503    9.9783   26.2830 C   0  0  0  0  0  0  0  0  0  0  0  0
    5.3768   10.5137   27.1211 C   0  0  0  0  0  0  0  0  0  0  0  0
    5.1679   11.8936   27.1500 C   0  0  0  0  0  0  0  0  0  0  0  0
    5.9100   12.7426   26.3217 C   0  0  0  0  0  0  0  0  0  0  0  0
    6.8952   12.2105   25.4943 C   0  0  0  0  0  0  0  0  0  0  0  0
    8.9873   16.1471   22.6847 C   0  0  0  0  0  0  0  0  0  0  0  0
  1  2  1  0
  2  3  2  0
  2  4  1  0
  4  5  1  6
  4  6  1  0
  6  7  1  0
  7  8  1  0
  8  9  1  0
  9 10  1  0
 10 11  2  0
 12 10  1  1
 12 13  1  0
 13 14  1  0
 14 15  1  0
 15 16  2  0
 16 17  1  0
 17 18  2  0
 18 19  1  0
 19 20  2  0
  9 21  1  0
 21  4  1  0
 20 12  1  0
 20 15  1  0
M  END
>  <alias>  (163) 
None

>  <Experiment code>  (163) 
nan

>  <CrystalformSites upload name>  (163) 
nan

>  <inchikey>  (163) 
ZPPSFBXZVAZURQ-XHDPSFHLSA-N

>  <Crystalforms upload name>  (163) 
nan

>  <Quatassemblies upload name>  (163) 
nan

>  <ConformerSites alias>  (163) 
nan

>  <ConformerSites short tag>  (163) 
nan

>  <Crystalforms short tag>  (163) 
nan

>  <Centroid res>  (163) 
nan

>  <Quatassemblies short tag>  (163) 
nan

>  <observation_longname>  (163) 
nan

>  <name>  (163) 
ZPPSFBXZVAZURQ-XHDPSFHLSA-N

>  <CanonSites upload name>  (163) 
nan

>  <tags>  (163) 
['iter2']

>  <energy_score>  (163) 
113.552289

>  <original SMILES>  (163) 
NC(=O)[C@@]1(N)CCCN(C(=O)[C@H]2CSc3ccccc32)C1

>  <ref_mols>  (163) 
A4386a

>  <Pose>  (163) 
nan

>  <distance_score>  (163) 
1.446732

>  <ConformerSites upload name>  (163) 
nan

>  <HIPPO Pose ID>  (163) 
293001

>  <Crystalforms alias>  (163) 
nan

>  <original ID>  (163) 
ZPPSFBXZVAZURQ-XHDPSFHLSA-N

>  <CanonSites alias>  (163) 
nan

>  <CrystalformSites alias>  (163) 
nan

>  <ref_pdb>  (163) 
A4386a

>  <CanonSites short tag>  (163) 
nan

>  <Quatassemblies alias>  (163) 
nan

>  <HIPPO Compound ID>  (163) 
122880

>  <CrystalformSites short tag>  (163) 
nan

$$$$
SPWOTSWQWSKTTN-NHYWBVRUSA-N
     RDKit          3D

 21 23  0  0  0  0  0  0  0  0999 V2000
    5.3698   14.8273   21.1927 N   0  0  0  0  0  0  0  0  0  0  0  0
    4.9655   14.5805   22.5539 C   0  0  0  0  0  0  0  0  0  0  0  0
    3.8854   14.3200   23.0143 O   0  0  0  0  0  0  0  0  0  0  0  0
    6.2000   14.6732   23.5797 C   0  0  2  0  0  0  0  0  0  0  0  0
    5.8291   13.6957   24.5736 N   0  0  0  0  0  0  0  0  0  0  0  0
    6.4388   13.3455   25.8259 C   0  0  0  0  0  0  0  0  0  0  0  0
    7.3665   13.8288   26.4049 O   0  0  0  0  0  0  0  0  0  0  0  0
    5.7417   12.0984   26.3104 C   0  0  1  0  0  0  0  0  0  0  0  0
    6.5054   10.9159   25.7116 C   0  0  0  0  0  0  0  0  0  0  0  0
    5.6777    9.5035   26.4555 S   0  0  0  0  0  0  0  0  0  0  0  0
    5.4697   10.3978   27.9700 C   0  0  0  0  0  0  0  0  0  0  0  0
    5.2156    9.8724   29.2224 C   0  0  0  0  0  0  0  0  0  0  0  0
    5.1621   10.7511   30.3018 C   0  0  0  0  0  0  0  0  0  0  0  0
    5.3506   12.1283   30.1108 C   0  0  0  0  0  0  0  0  0  0  0  0
    5.5803   12.6523   28.8379 C   0  0  0  0  0  0  0  0  0  0  0  0
    5.6447   11.7762   27.7706 C   0  0  0  0  0  0  0  0  0  0  0  0
    6.2800   16.0861   24.1460 C   0  0  0  0  0  0  0  0  0  0  0  0
    6.8133   17.0370   23.0844 C   0  0  0  0  0  0  0  0  0  0  0  0
    8.1188   16.5549   22.4465 C   0  0  0  0  0  0  0  0  0  0  0  0
    7.9639   15.1841   21.8946 N   0  0  0  0  0  0  0  0  0  0  0  0
    7.5730   14.2703   22.9880 C   0  0  0  0  0  0  0  0  0  0  0  0
  1  2  1  0
  2  3  2  0
  2  4  1  0
  4  5  1  1
  5  6  1  0
  6  7  2  0
  8  6  1  1
  8  9  1  0
  9 10  1  0
 10 11  1  0
 11 12  2  0
 12 13  1  0
 13 14  2  0
 14 15  1  0
 15 16  2  0
  4 17  1  0
 17 18  1  0
 18 19  1  0
 19 20  1  0
 20 21  1  0
 21  4  1  0
 16  8  1  0
 16 11  1  0
M  END
>  <alias>  (164) 
None

>  <Experiment code>  (164) 
nan

>  <CrystalformSites upload name>  (164) 
nan

>  <inchikey>  (164) 
SPWOTSWQWSKTTN-NHYWBVRUSA-N

>  <Crystalforms upload name>  (164) 
nan

>  <Quatassemblies upload name>  (164) 
nan

>  <ConformerSites alias>  (164) 
nan

>  <ConformerSites short tag>  (164) 
nan

>  <Crystalforms short tag>  (164) 
nan

>  <Centroid res>  (164) 
nan

>  <Quatassemblies short tag>  (164) 
nan

>  <observation_longname>  (164) 
nan

>  <name>  (164) 
SPWOTSWQWSKTTN-NHYWBVRUSA-N

>  <CanonSites upload name>  (164) 
nan

>  <tags>  (164) 
['iter2']

>  <energy_score>  (164) 
80.315225

>  <original SMILES>  (164) 
NC(=O)[C@]1(NC(=O)[C@H]2CSc3ccccc32)CCCNC1

>  <ref_mols>  (164) 
A4386a

>  <Pose>  (164) 
nan

>  <distance_score>  (164) 
3.853528

>  <ConformerSites upload name>  (164) 
nan

>  <HIPPO Pose ID>  (164) 
293002

>  <Crystalforms alias>  (164) 
nan

>  <original ID>  (164) 
SPWOTSWQWSKTTN-NHYWBVRUSA-N

>  <CanonSites alias>  (164) 
nan

>  <CrystalformSites alias>  (164) 
nan

>  <ref_pdb>  (164) 
A4386a

>  <CanonSites short tag>  (164) 
nan

>  <Quatassemblies alias>  (164) 
nan

>  <HIPPO Compound ID>  (164) 
122861

>  <CrystalformSites short tag>  (164) 
nan

$$$$
SPWOTSWQWSKTTN-IAQYHMDHSA-N
     RDKit          3D

 21 23  0  0  0  0  0  0  0  0999 V2000
    6.6707   15.7038   24.0444 N   0  0  0  0  0  0  0  0  0  0  0  0
    8.0109   16.1877   24.3623 C   0  0  0  0  0  0  0  0  0  0  0  0
    8.3912   16.9143   25.2412 O   0  0  0  0  0  0  0  0  0  0  0  0
    9.1061   15.5318   23.4224 C   0  0  1  0  0  0  0  0  0  0  0  0
    9.0888   14.1625   23.9464 N   0  0  0  0  0  0  0  0  0  0  0  0
    8.2139   13.0663   23.6781 C   0  0  0  0  0  0  0  0  0  0  0  0
    7.3153   12.9580   22.8944 O   0  0  0  0  0  0  0  0  0  0  0  0
    8.5174   11.9472   24.6889 C   0  0  2  0  0  0  0  0  0  0  0  0
    8.9138   10.6554   23.9750 C   0  0  0  0  0  0  0  0  0  0  0  0
    8.0064    9.2963   24.7343 S   0  0  0  0  0  0  0  0  0  0  0  0
    6.9577   10.3539   25.6685 C   0  0  0  0  0  0  0  0  0  0  0  0
    5.8874    9.9628   26.4582 C   0  0  0  0  0  0  0  0  0  0  0  0
    5.1823   10.9268   27.1776 C   0  0  0  0  0  0  0  0  0  0  0  0
    5.5480   12.2717   27.0927 C   0  0  0  0  0  0  0  0  0  0  0  0
    6.6221   12.6593   26.2911 C   0  0  0  0  0  0  0  0  0  0  0  0
    7.3222   11.6896   25.5723 C   0  0  0  0  0  0  0  0  0  0  0  0
    8.8295   15.6169   21.9024 C   0  0  0  0  0  0  0  0  0  0  0  0
    9.9732   16.2727   21.1179 C   0  0  0  0  0  0  0  0  0  0  0  0
   11.3520   15.7184   21.4887 C   0  0  0  0  0  0  0  0  0  0  0  0
   11.5243   15.4070   22.9188 N   0  0  0  0  0  0  0  0  0  0  0  0
   10.5096   16.1058   23.7244 C   0  0  0  0  0  0  0  0  0  0  0  0
  1  2  1  0
  2  3  2  0
  2  4  1  0
  4  5  1  1
  5  6  1  0
  6  7  2  0
  8  6  1  6
  8  9  1  0
  9 10  1  0
 10 11  1  0
 11 12  2  0
 12 13  1  0
 13 14  2  0
 14 15  1  0
 15 16  2  0
  4 17  1  0
 17 18  1  0
 18 19  1  0
 19 20  1  0
 20 21  1  0
 21  4  1  0
 16  8  1  0
 16 11  1  0
M  END
>  <alias>  (165) 
None

>  <Experiment code>  (165) 
nan

>  <CrystalformSites upload name>  (165) 
nan

>  <inchikey>  (165) 
SPWOTSWQWSKTTN-IAQYHMDHSA-N

>  <Crystalforms upload name>  (165) 
nan

>  <Quatassemblies upload name>  (165) 
nan

>  <ConformerSites alias>  (165) 
nan

>  <ConformerSites short tag>  (165) 
nan

>  <Crystalforms short tag>  (165) 
nan

>  <Centroid res>  (165) 
nan

>  <Quatassemblies short tag>  (165) 
nan

>  <observation_longname>  (165) 
nan

>  <name>  (165) 
SPWOTSWQWSKTTN-IAQYHMDHSA-N

>  <CanonSites upload name>  (165) 
nan

>  <tags>  (165) 
['iter2']

>  <energy_score>  (165) 
80.69285

>  <original SMILES>  (165) 
NC(=O)[C@@]1(NC(=O)[C@@H]2CSc3ccccc32)CCCNC1

>  <ref_mols>  (165) 
A4386a

>  <Pose>  (165) 
nan

>  <distance_score>  (165) 
1.830488

>  <ConformerSites upload name>  (165) 
nan

>  <HIPPO Pose ID>  (165) 
293003

>  <Crystalforms alias>  (165) 
nan

>  <original ID>  (165) 
SPWOTSWQWSKTTN-IAQYHMDHSA-N

>  <CanonSites alias>  (165) 
nan

>  <CrystalformSites alias>  (165) 
nan

>  <ref_pdb>  (165) 
A4386a

>  <CanonSites short tag>  (165) 
nan

>  <Quatassemblies alias>  (165) 
nan

>  <HIPPO Compound ID>  (165) 
122861

>  <CrystalformSites short tag>  (165) 
nan

$$$$
SPWOTSWQWSKTTN-NHYWBVRUSA-N
     RDKit          3D

 21 23  0  0  0  0  0  0  0  0999 V2000
   10.8531   14.9645   26.1455 N   0  0  0  0  0  0  0  0  0  0  0  0
   11.5299   14.7292   24.8752 C   0  0  0  0  0  0  0  0  0  0  0  0
   12.6804   14.4786   24.6398 O   0  0  0  0  0  0  0  0  0  0  0  0
   10.5465   14.9043   23.6115 C   0  0  2  0  0  0  0  0  0  0  0  0
    9.5319   13.8572   23.7554 N   0  0  0  0  0  0  0  0  0  0  0  0
    8.5371   13.6457   24.7607 C   0  0  0  0  0  0  0  0  0  0  0  0
    8.3295   14.2278   25.7866 O   0  0  0  0  0  0  0  0  0  0  0  0
    7.7027   12.3868   24.4243 C   0  0  1  0  0  0  0  0  0  0  0  0
    8.6337   11.1750   24.2010 C   0  0  0  0  0  0  0  0  0  0  0  0
    7.8679    9.6931   24.8821 S   0  0  0  0  0  0  0  0  0  0  0  0
    6.6942   10.6227   25.8031 C   0  0  0  0  0  0  0  0  0  0  0  0
    5.7914   10.0978   26.7172 C   0  0  0  0  0  0  0  0  0  0  0  0
    4.9136   10.9549   27.3765 C   0  0  0  0  0  0  0  0  0  0  0  0
    4.9226   12.3202   27.0875 C   0  0  0  0  0  0  0  0  0  0  0  0
    5.8132   12.8353   26.1433 C   0  0  0  0  0  0  0  0  0  0  0  0
    6.7230   11.9851   25.5124 C   0  0  0  0  0  0  0  0  0  0  0  0
   11.3263   14.7121   22.2890 C   0  0  0  0  0  0  0  0  0  0  0  0
   10.7694   15.4989   21.1005 C   0  0  0  0  0  0  0  0  0  0  0  0
    9.2782   15.7545   21.2175 C   0  0  0  0  0  0  0  0  0  0  0  0
    8.8815   16.4117   22.4640 N   0  0  0  0  0  0  0  0  0  0  0  0
    9.8892   16.3036   23.5331 C   0  0  0  0  0  0  0  0  0  0  0  0
  1  2  1  0
  2  3  2  0
  2  4  1  0
  4  5  1  1
  5  6  1  0
  6  7  2  0
  8  6  1  1
  8  9  1  0
  9 10  1  0
 10 11  1  0
 11 12  2  0
 12 13  1  0
 13 14  2  0
 14 15  1  0
 15 16  2  0
  4 17  1  0
 17 18  1  0
 18 19  1  0
 19 20  1  0
 20 21  1  0
 21  4  1  0
 16  8  1  0
 16 11  1  0
M  END
>  <alias>  (166) 
None

>  <Experiment code>  (166) 
nan

>  <CrystalformSites upload name>  (166) 
nan

>  <inchikey>  (166) 
SPWOTSWQWSKTTN-NHYWBVRUSA-N

>  <Crystalforms upload name>  (166) 
nan

>  <Quatassemblies upload name>  (166) 
nan

>  <ConformerSites alias>  (166) 
nan

>  <ConformerSites short tag>  (166) 
nan

>  <Crystalforms short tag>  (166) 
nan

>  <Centroid res>  (166) 
nan

>  <Quatassemblies short tag>  (166) 
nan

>  <observation_longname>  (166) 
nan

>  <name>  (166) 
SPWOTSWQWSKTTN-NHYWBVRUSA-N

>  <CanonSites upload name>  (166) 
nan

>  <tags>  (166) 
['iter2']

>  <energy_score>  (166) 
-86.15071

>  <original SMILES>  (166) 
NC(=O)[C@]1(NC(=O)[C@H]2CSc3ccccc32)CCCNC1

>  <ref_mols>  (166) 
A4386a

>  <Pose>  (166) 
nan

>  <distance_score>  (166) 
2.123057

>  <ConformerSites upload name>  (166) 
nan

>  <HIPPO Pose ID>  (166) 
293004

>  <Crystalforms alias>  (166) 
nan

>  <original ID>  (166) 
SPWOTSWQWSKTTN-NHYWBVRUSA-N

>  <CanonSites alias>  (166) 
nan

>  <CrystalformSites alias>  (166) 
nan

>  <ref_pdb>  (166) 
A4386a

>  <CanonSites short tag>  (166) 
nan

>  <Quatassemblies alias>  (166) 
nan

>  <HIPPO Compound ID>  (166) 
122861

>  <CrystalformSites short tag>  (166) 
nan

$$$$
SPWOTSWQWSKTTN-XHDPSFHLSA-N
     RDKit          3D

 21 23  0  0  0  0  0  0  0  0999 V2000
    8.4652   16.6291   25.3610 N   0  0  0  0  0  0  0  0  0  0  0  0
    9.8166   16.3437   24.8935 C   0  0  0  0  0  0  0  0  0  0  0  0
   10.8799   16.5191   25.4254 O   0  0  0  0  0  0  0  0  0  0  0  0
    9.8249   15.6774   23.4489 C   0  0  1  0  0  0  0  0  0  0  0  0
    9.1818   14.3781   23.6382 N   0  0  0  0  0  0  0  0  0  0  0  0
    7.8532   14.0397   24.0106 C   0  0  0  0  0  0  0  0  0  0  0  0
    6.8926   14.7332   24.1897 O   0  0  0  0  0  0  0  0  0  0  0  0
    7.6378   12.5190   24.1691 C   0  0  1  0  0  0  0  0  0  0  0  0
    8.8292   11.5565   24.0879 C   0  0  0  0  0  0  0  0  0  0  0  0
    8.2010    9.9361   24.6055 S   0  0  0  0  0  0  0  0  0  0  0  0
    6.9555   10.6880   25.6073 C   0  0  0  0  0  0  0  0  0  0  0  0
    6.1337   10.0334   26.5097 C   0  0  0  0  0  0  0  0  0  0  0  0
    5.2530   10.7731   27.2931 C   0  0  0  0  0  0  0  0  0  0  0  0
    5.1865   12.1578   27.1427 C   0  0  0  0  0  0  0  0  0  0  0  0
    5.9726   12.8052   26.1844 C   0  0  0  0  0  0  0  0  0  0  0  0
    6.8571   12.0671   25.3987 C   0  0  0  0  0  0  0  0  0  0  0  0
    9.0823   16.4961   22.3648 C   0  0  0  0  0  0  0  0  0  0  0  0
    9.8235   16.5211   21.0260 C   0  0  0  0  0  0  0  0  0  0  0  0
   10.4369   15.1676   20.7252 C   0  0  0  0  0  0  0  0  0  0  0  0
   11.4352   14.7624   21.7190 N   0  0  0  0  0  0  0  0  0  0  0  0
   11.2945   15.4634   23.0015 C   0  0  0  0  0  0  0  0  0  0  0  0
  1  2  1  0
  2  3  2  0
  2  4  1  0
  4  5  1  1
  5  6  1  0
  6  7  2  0
  8  6  1  1
  8  9  1  0
  9 10  1  0
 10 11  1  0
 11 12  2  0
 12 13  1  0
 13 14  2  0
 14 15  1  0
 15 16  2  0
  4 17  1  0
 17 18  1  0
 18 19  1  0
 19 20  1  0
 20 21  1  0
 21  4  1  0
 16  8  1  0
 16 11  1  0
M  END
>  <alias>  (167) 
None

>  <Experiment code>  (167) 
nan

>  <CrystalformSites upload name>  (167) 
nan

>  <inchikey>  (167) 
SPWOTSWQWSKTTN-XHDPSFHLSA-N

>  <Crystalforms upload name>  (167) 
nan

>  <Quatassemblies upload name>  (167) 
nan

>  <ConformerSites alias>  (167) 
nan

>  <ConformerSites short tag>  (167) 
nan

>  <Crystalforms short tag>  (167) 
nan

>  <Centroid res>  (167) 
nan

>  <Quatassemblies short tag>  (167) 
nan

>  <observation_longname>  (167) 
nan

>  <name>  (167) 
SPWOTSWQWSKTTN-XHDPSFHLSA-N

>  <CanonSites upload name>  (167) 
nan

>  <tags>  (167) 
['iter2']

>  <energy_score>  (167) 
85.08314

>  <original SMILES>  (167) 
NC(=O)[C@@]1(NC(=O)[C@H]2CSc3ccccc32)CCCNC1

>  <ref_mols>  (167) 
A4386a

>  <Pose>  (167) 
nan

>  <distance_score>  (167) 
1.739876

>  <ConformerSites upload name>  (167) 
nan

>  <HIPPO Pose ID>  (167) 
293005

>  <Crystalforms alias>  (167) 
nan

>  <original ID>  (167) 
SPWOTSWQWSKTTN-XHDPSFHLSA-N

>  <CanonSites alias>  (167) 
nan

>  <CrystalformSites alias>  (167) 
nan

>  <ref_pdb>  (167) 
A4386a

>  <CanonSites short tag>  (167) 
nan

>  <Quatassemblies alias>  (167) 
nan

>  <HIPPO Compound ID>  (167) 
122861

>  <CrystalformSites short tag>  (167) 
nan

$$$$
ZXKMFCGACBAZDX-OAHLLOKOSA-N
     RDKit          3D

 21 22  0  0  0  0  0  0  0  0999 V2000
    9.1987    9.0939   23.5242 C   0  0  0  0  0  0  0  0  0  0  0  0
    9.0808   10.8549   23.9387 S   0  0  0  0  0  0  0  0  0  0  0  0
    7.7033   10.9680   25.0842 C   0  0  0  0  0  0  0  0  0  0  0  0
    7.0208    9.8381   25.5491 C   0  0  0  0  0  0  0  0  0  0  0  0
    5.9356    9.9455   26.4250 C   0  0  0  0  0  0  0  0  0  0  0  0
    5.5152   11.1921   26.8613 C   0  0  0  0  0  0  0  0  0  0  0  0
    6.1847   12.3289   26.4241 C   0  0  0  0  0  0  0  0  0  0  0  0
    7.2849   12.2332   25.5478 C   0  0  0  0  0  0  0  0  0  0  0  0
    7.9644   13.5207   25.1362 C   0  0  0  0  0  0  0  0  0  0  0  0
    7.5720   14.0273   23.7446 C   0  0  0  0  0  0  0  0  0  0  0  0
    6.4315   13.9999   23.3696 O   0  0  0  0  0  0  0  0  0  0  0  0
    8.7410   14.5693   23.1248 N   0  0  0  0  0  0  0  0  0  0  0  0
    8.9396   16.0116   23.5565 C   0  0  0  0  0  0  0  0  0  0  0  0
   10.4191   16.4103   23.5920 C   0  0  0  0  0  0  0  0  0  0  0  0
   10.8500   16.7115   22.1745 C   0  0  0  0  0  0  0  0  0  0  0  0
   10.3978   15.5303   21.3398 C   0  0  2  0  0  0  0  0  0  0  0  0
   11.3000   14.3582   21.6247 N   0  0  0  0  0  0  0  0  0  0  0  0
   10.4603   15.8342   19.8147 C   0  0  0  0  0  0  0  0  0  0  0  0
   10.9533   14.6506   19.1656 N   0  0  0  0  0  0  0  0  0  0  0  0
   10.1383   16.8937   19.3638 O   0  0  0  0  0  0  0  0  0  0  0  0
    8.9402   15.1847   21.7416 C   0  0  0  0  0  0  0  0  0  0  0  0
  1  2  1  0
  2  3  1  0
  3  4  2  0
  4  5  1  0
  5  6  2  0
  6  7  1  0
  7  8  2  0
  8  9  1  0
  9 10  1  0
 10 11  2  0
 10 12  1  0
 12 13  1  0
 13 14  1  0
 14 15  1  0
 15 16  1  0
 16 17  1  6
 16 18  1  0
 18 19  1  0
 18 20  2  0
 16 21  1  0
  8  3  1  0
 21 12  1  0
M  END
>  <alias>  (168) 
None

>  <Experiment code>  (168) 
nan

>  <CrystalformSites upload name>  (168) 
nan

>  <inchikey>  (168) 
ZXKMFCGACBAZDX-OAHLLOKOSA-N

>  <Crystalforms upload name>  (168) 
nan

>  <Quatassemblies upload name>  (168) 
nan

>  <ConformerSites alias>  (168) 
nan

>  <ConformerSites short tag>  (168) 
nan

>  <Crystalforms short tag>  (168) 
nan

>  <Centroid res>  (168) 
nan

>  <Quatassemblies short tag>  (168) 
nan

>  <observation_longname>  (168) 
nan

>  <name>  (168) 
ZXKMFCGACBAZDX-OAHLLOKOSA-N

>  <CanonSites upload name>  (168) 
nan

>  <tags>  (168) 
['iter2']

>  <energy_score>  (168) 
5.707617

>  <original SMILES>  (168) 
CSc1ccccc1CC(=O)N1CCC[C@](N)(C(N)=O)C1

>  <ref_mols>  (168) 
A4386a

>  <Pose>  (168) 
nan

>  <distance_score>  (168) 
0.648105

>  <ConformerSites upload name>  (168) 
nan

>  <HIPPO Pose ID>  (168) 
293007

>  <Crystalforms alias>  (168) 
nan

>  <original ID>  (168) 
ZXKMFCGACBAZDX-OAHLLOKOSA-N

>  <CanonSites alias>  (168) 
nan

>  <CrystalformSites alias>  (168) 
nan

>  <ref_pdb>  (168) 
A4386a

>  <CanonSites short tag>  (168) 
nan

>  <Quatassemblies alias>  (168) 
nan

>  <HIPPO Compound ID>  (168) 
122946

>  <CrystalformSites short tag>  (168) 
nan

$$$$
ZXKMFCGACBAZDX-HNNXBMFYSA-N
     RDKit          3D

 21 22  0  0  0  0  0  0  0  0999 V2000
    9.2447    8.9663   23.5290 C   0  0  0  0  0  0  0  0  0  0  0  0
    9.1391   10.7471   23.8153 S   0  0  0  0  0  0  0  0  0  0  0  0
    7.7947   10.9570   24.9767 C   0  0  0  0  0  0  0  0  0  0  0  0
    7.0770    9.8754   25.5013 C   0  0  0  0  0  0  0  0  0  0  0  0
    6.0127   10.0631   26.3877 C   0  0  0  0  0  0  0  0  0  0  0  0
    5.6488   11.3459   26.7695 C   0  0  0  0  0  0  0  0  0  0  0  0
    6.3562   12.4360   26.2711 C   0  0  0  0  0  0  0  0  0  0  0  0
    7.4389   12.2583   25.3860 C   0  0  0  0  0  0  0  0  0  0  0  0
    8.1719   13.4945   24.9031 C   0  0  0  0  0  0  0  0  0  0  0  0
    7.6707   14.0601   23.5662 C   0  0  0  0  0  0  0  0  0  0  0  0
    6.5025   14.0350   23.2825 O   0  0  0  0  0  0  0  0  0  0  0  0
    8.7825   14.6446   22.8787 N   0  0  0  0  0  0  0  0  0  0  0  0
    9.0002   16.0555   23.3535 C   0  0  0  0  0  0  0  0  0  0  0  0
   10.4766   16.4371   23.3214 C   0  0  0  0  0  0  0  0  0  0  0  0
   10.7919   16.9178   21.9263 C   0  0  0  0  0  0  0  0  0  0  0  0
   10.1752   15.9419   20.9345 C   0  0  1  0  0  0  0  0  0  0  0  0
    9.9041   16.6776   19.6394 N   0  0  0  0  0  0  0  0  0  0  0  0
   11.2117   14.8343   20.6037 C   0  0  0  0  0  0  0  0  0  0  0  0
   11.3109   14.6957   19.1579 N   0  0  0  0  0  0  0  0  0  0  0  0
   11.8111   14.2831   21.4848 O   0  0  0  0  0  0  0  0  0  0  0  0
    8.8634   15.3199   21.5189 C   0  0  0  0  0  0  0  0  0  0  0  0
  1  2  1  0
  2  3  1  0
  3  4  2  0
  4  5  1  0
  5  6  2  0
  6  7  1  0
  7  8  2  0
  8  9  1  0
  9 10  1  0
 10 11  2  0
 10 12  1  0
 12 13  1  0
 13 14  1  0
 14 15  1  0
 15 16  1  0
 16 17  1  6
 16 18  1  0
 18 19  1  0
 18 20  2  0
 16 21  1  0
  8  3  1  0
 21 12  1  0
M  END
>  <alias>  (169) 
None

>  <Experiment code>  (169) 
nan

>  <CrystalformSites upload name>  (169) 
nan

>  <inchikey>  (169) 
ZXKMFCGACBAZDX-HNNXBMFYSA-N

>  <Crystalforms upload name>  (169) 
nan

>  <Quatassemblies upload name>  (169) 
nan

>  <ConformerSites alias>  (169) 
nan

>  <ConformerSites short tag>  (169) 
nan

>  <Crystalforms short tag>  (169) 
nan

>  <Centroid res>  (169) 
nan

>  <Quatassemblies short tag>  (169) 
nan

>  <observation_longname>  (169) 
nan

>  <name>  (169) 
ZXKMFCGACBAZDX-HNNXBMFYSA-N

>  <CanonSites upload name>  (169) 
nan

>  <tags>  (169) 
['iter2']

>  <energy_score>  (169) 
111.970689

>  <original SMILES>  (169) 
CSc1ccccc1CC(=O)N1CCC[C@@](N)(C(N)=O)C1

>  <ref_mols>  (169) 
A4386a

>  <Pose>  (169) 
nan

>  <distance_score>  (169) 
1.149029

>  <ConformerSites upload name>  (169) 
nan

>  <HIPPO Pose ID>  (169) 
293008

>  <Crystalforms alias>  (169) 
nan

>  <original ID>  (169) 
ZXKMFCGACBAZDX-HNNXBMFYSA-N

>  <CanonSites alias>  (169) 
nan

>  <CrystalformSites alias>  (169) 
nan

>  <ref_pdb>  (169) 
A4386a

>  <CanonSites short tag>  (169) 
nan

>  <Quatassemblies alias>  (169) 
nan

>  <HIPPO Compound ID>  (169) 
122946

>  <CrystalformSites short tag>  (169) 
nan

$$$$
CIPSLIIOJPGGQL-WCQYABFASA-N
     RDKit          3D

 21 23  0  0  0  0  0  0  0  0999 V2000
   10.7882   14.6372   19.0980 N   0  0  0  0  0  0  0  0  0  0  0  0
   10.4904   15.8141   19.8683 C   0  0  0  0  0  0  0  0  0  0  0  0
   10.3457   16.9506   19.5286 O   0  0  0  0  0  0  0  0  0  0  0  0
   10.3786   15.4531   21.3550 C   0  0  1  0  0  0  0  0  0  0  0  0
   10.8519   16.5787   22.2531 C   0  0  0  0  0  0  0  0  0  0  0  0
   10.3471   16.2549   23.6401 C   0  0  0  0  0  0  0  0  0  0  0  0
    8.8648   15.8666   23.5372 C   0  0  0  0  0  0  0  0  0  0  0  0
    8.7018   14.4408   23.0153 N   0  0  0  0  0  0  0  0  0  0  0  0
    7.5266   13.8396   23.5772 C   0  0  0  0  0  0  0  0  0  0  0  0
    6.3969   13.8141   23.1751 O   0  0  0  0  0  0  0  0  0  0  0  0
    7.9397   13.1869   24.9240 C   0  0  2  0  0  0  0  0  0  0  0  0
    9.2173   12.3570   24.7884 C   0  0  0  0  0  0  0  0  0  0  0  0
    8.9893   11.0714   24.0228 C   0  0  0  0  0  0  0  0  0  0  0  0
    7.9373    9.9190   24.9211 S   0  0  0  0  0  0  0  0  0  0  0  0
    6.7933   11.0209   25.7220 C   0  0  0  0  0  0  0  0  0  0  0  0
    5.8074   10.3989   26.5055 C   0  0  0  0  0  0  0  0  0  0  0  0
    4.8695   11.1516   27.2074 C   0  0  0  0  0  0  0  0  0  0  0  0
    4.8913   12.5365   27.1135 C   0  0  0  0  0  0  0  0  0  0  0  0
    5.8675   13.1660   26.3414 C   0  0  0  0  0  0  0  0  0  0  0  0
    6.8451   12.4227   25.6521 C   0  0  0  0  0  0  0  0  0  0  0  0
    8.9162   15.1319   21.6928 C   0  0  0  0  0  0  0  0  0  0  0  0
  1  2  1  0
  2  3  2  0
  4  2  1  6
  4  5  1  0
  5  6  1  0
  6  7  1  0
  7  8  1  0
  8  9  1  0
  9 10  2  0
 11  9  1  6
 11 12  1  0
 12 13  1  0
 13 14  1  0
 14 15  1  0
 15 16  2  0
 16 17  1  0
 17 18  2  0
 18 19  1  0
 19 20  2  0
  8 21  1  0
 21  4  1  0
 20 11  1  0
 20 15  1  0
M  END
>  <alias>  (170) 
None

>  <Experiment code>  (170) 
nan

>  <CrystalformSites upload name>  (170) 
nan

>  <inchikey>  (170) 
CIPSLIIOJPGGQL-WCQYABFASA-N

>  <Crystalforms upload name>  (170) 
nan

>  <Quatassemblies upload name>  (170) 
nan

>  <ConformerSites alias>  (170) 
nan

>  <ConformerSites short tag>  (170) 
nan

>  <Crystalforms short tag>  (170) 
nan

>  <Centroid res>  (170) 
nan

>  <Quatassemblies short tag>  (170) 
nan

>  <observation_longname>  (170) 
nan

>  <name>  (170) 
CIPSLIIOJPGGQL-WCQYABFASA-N

>  <CanonSites upload name>  (170) 
nan

>  <tags>  (170) 
['iter2']

>  <energy_score>  (170) 
127.008944

>  <original SMILES>  (170) 
NC(=O)[C@H]1CCCN(C(=O)[C@@H]2CCSc3ccccc32)C1

>  <ref_mols>  (170) 
A4386a

>  <Pose>  (170) 
nan

>  <distance_score>  (170) 
1.241965

>  <ConformerSites upload name>  (170) 
nan

>  <HIPPO Pose ID>  (170) 
293099

>  <Crystalforms alias>  (170) 
nan

>  <original ID>  (170) 
CIPSLIIOJPGGQL-WCQYABFASA-N

>  <CanonSites alias>  (170) 
nan

>  <CrystalformSites alias>  (170) 
nan

>  <ref_pdb>  (170) 
A4386a

>  <CanonSites short tag>  (170) 
nan

>  <Quatassemblies alias>  (170) 
nan

>  <HIPPO Compound ID>  (170) 
122657

>  <CrystalformSites short tag>  (170) 
nan

$$$$
CIPSLIIOJPGGQL-WCQYABFASA-N
     RDKit          3D

 21 23  0  0  0  0  0  0  0  0999 V2000
   12.0085   15.5750   19.3616 N   0  0  0  0  0  0  0  0  0  0  0  0
   10.6817   15.7543   19.9091 C   0  0  0  0  0  0  0  0  0  0  0  0
    9.6730   16.1452   19.3959 O   0  0  0  0  0  0  0  0  0  0  0  0
   10.6299   15.2842   21.3668 C   0  0  1  0  0  0  0  0  0  0  0  0
   11.2517   16.2709   22.3313 C   0  0  0  0  0  0  0  0  0  0  0  0
   10.8492   15.8353   23.7307 C   0  0  0  0  0  0  0  0  0  0  0  0
    9.3754   15.4015   23.7681 C   0  0  0  0  0  0  0  0  0  0  0  0
    9.0610   14.1329   22.9886 N   0  0  0  0  0  0  0  0  0  0  0  0
    7.9206   13.4832   23.5468 C   0  0  0  0  0  0  0  0  0  0  0  0
    6.7543   13.5948   23.2862 O   0  0  0  0  0  0  0  0  0  0  0  0
    8.4289   12.4236   24.5699 C   0  0  2  0  0  0  0  0  0  0  0  0
    8.9533   11.3142   23.6475 C   0  0  0  0  0  0  0  0  0  0  0  0
    9.1290    9.9184   24.1643 C   0  0  0  0  0  0  0  0  0  0  0  0
    7.6598    9.2911   24.9713 S   0  0  0  0  0  0  0  0  0  0  0  0
    6.9684   10.7013   25.7794 C   0  0  0  0  0  0  0  0  0  0  0  0
    5.9336   10.4176   26.6889 C   0  0  0  0  0  0  0  0  0  0  0  0
    5.3166   11.4297   27.4178 C   0  0  0  0  0  0  0  0  0  0  0  0
    5.7262   12.7423   27.2405 C   0  0  0  0  0  0  0  0  0  0  0  0
    6.7400   13.0352   26.3280 C   0  0  0  0  0  0  0  0  0  0  0  0
    7.3647   12.0232   25.5687 C   0  0  0  0  0  0  0  0  0  0  0  0
    9.1802   15.0767   21.8246 C   0  0  0  0  0  0  0  0  0  0  0  0
  1  2  1  0
  2  3  2  0
  4  2  1  6
  4  5  1  0
  5  6  1  0
  6  7  1  0
  7  8  1  0
  8  9  1  0
  9 10  2  0
 11  9  1  6
 11 12  1  0
 12 13  1  0
 13 14  1  0
 14 15  1  0
 15 16  2  0
 16 17  1  0
 17 18  2  0
 18 19  1  0
 19 20  2  0
  8 21  1  0
 21  4  1  0
 20 11  1  0
 20 15  1  0
M  END
>  <alias>  (171) 
None

>  <Experiment code>  (171) 
nan

>  <CrystalformSites upload name>  (171) 
nan

>  <inchikey>  (171) 
CIPSLIIOJPGGQL-WCQYABFASA-N

>  <Crystalforms upload name>  (171) 
nan

>  <Quatassemblies upload name>  (171) 
nan

>  <ConformerSites alias>  (171) 
nan

>  <ConformerSites short tag>  (171) 
nan

>  <Crystalforms short tag>  (171) 
nan

>  <Centroid res>  (171) 
nan

>  <Quatassemblies short tag>  (171) 
nan

>  <observation_longname>  (171) 
nan

>  <name>  (171) 
CIPSLIIOJPGGQL-WCQYABFASA-N

>  <CanonSites upload name>  (171) 
nan

>  <tags>  (171) 
['iter2']

>  <energy_score>  (171) 
-69.360182

>  <original SMILES>  (171) 
NC(=O)[C@H]1CCCN(C(=O)[C@@H]2CCSc3ccccc32)C1

>  <ref_mols>  (171) 
A4386a

>  <Pose>  (171) 
nan

>  <distance_score>  (171) 
1.194042

>  <ConformerSites upload name>  (171) 
nan

>  <HIPPO Pose ID>  (171) 
293100

>  <Crystalforms alias>  (171) 
nan

>  <original ID>  (171) 
CIPSLIIOJPGGQL-WCQYABFASA-N

>  <CanonSites alias>  (171) 
nan

>  <CrystalformSites alias>  (171) 
nan

>  <ref_pdb>  (171) 
A4386a

>  <CanonSites short tag>  (171) 
nan

>  <Quatassemblies alias>  (171) 
nan

>  <HIPPO Compound ID>  (171) 
122657

>  <CrystalformSites short tag>  (171) 
nan

$$$$
DPTOBIYTNLZBMB-NTZNESFSSA-N
     RDKit          3D

 21 23  0  0  0  0  0  0  0  0999 V2000
    7.6182   16.2733   23.4498 C   0  0  0  0  0  0  0  0  0  0  0  0
    8.8663   15.3673   23.6101 C   0  0  2  0  0  0  0  0  0  0  0  0
   10.2247   16.0999   23.7359 C   0  0  0  0  0  0  0  0  0  0  0  0
   10.6846   16.5844   22.3787 C   0  0  0  0  0  0  0  0  0  0  0  0
   10.5118   15.4109   21.4422 C   0  0  2  0  0  0  0  0  0  0  0  0
   10.6323   15.8005   19.9624 C   0  0  0  0  0  0  0  0  0  0  0  0
   10.9528   14.6423   19.1708 N   0  0  0  0  0  0  0  0  0  0  0  0
   10.4927   16.9439   19.6468 O   0  0  0  0  0  0  0  0  0  0  0  0
    9.1236   14.8386   21.7030 C   0  0  0  0  0  0  0  0  0  0  0  0
    8.9546   13.9838   22.9188 N   0  0  0  0  0  0  0  0  0  0  0  0
    7.8663   13.1594   23.3319 C   0  0  0  0  0  0  0  0  0  0  0  0
    6.7749   13.0127   22.8549 O   0  0  0  0  0  0  0  0  0  0  0  0
    8.3385   12.3175   24.5240 C   0  0  2  0  0  0  0  0  0  0  0  0
    8.9849   11.0312   23.9860 C   0  0  0  0  0  0  0  0  0  0  0  0
    8.1299    9.5972   24.6841 S   0  0  0  0  0  0  0  0  0  0  0  0
    7.0181   10.5819   25.6263 C   0  0  0  0  0  0  0  0  0  0  0  0
    6.0153   10.1018   26.4556 C   0  0  0  0  0  0  0  0  0  0  0  0
    5.2340   11.0070   27.1722 C   0  0  0  0  0  0  0  0  0  0  0  0
    5.4537   12.3808   27.0408 C   0  0  0  0  0  0  0  0  0  0  0  0
    6.4547   12.8573   26.1923 C   0  0  0  0  0  0  0  0  0  0  0  0
    7.2362   11.9479   25.4814 C   0  0  0  0  0  0  0  0  0  0  0  0
  2  1  1  6
  2  3  1  0
  3  4  1  0
  4  5  1  0
  5  6  1  6
  6  7  1  0
  6  8  2  0
  5  9  1  0
  9 10  1  0
 10 11  1  0
 11 12  2  0
 13 11  1  6
 13 14  1  0
 14 15  1  0
 15 16  1  0
 16 17  2  0
 17 18  1  0
 18 19  2  0
 19 20  1  0
 20 21  2  0
 10  2  1  0
 21 13  1  0
 21 16  1  0
M  END
>  <alias>  (172) 
None

>  <Experiment code>  (172) 
nan

>  <CrystalformSites upload name>  (172) 
nan

>  <inchikey>  (172) 
DPTOBIYTNLZBMB-NTZNESFSSA-N

>  <Crystalforms upload name>  (172) 
nan

>  <Quatassemblies upload name>  (172) 
nan

>  <ConformerSites alias>  (172) 
nan

>  <ConformerSites short tag>  (172) 
nan

>  <Crystalforms short tag>  (172) 
nan

>  <Centroid res>  (172) 
nan

>  <Quatassemblies short tag>  (172) 
nan

>  <observation_longname>  (172) 
nan

>  <name>  (172) 
DPTOBIYTNLZBMB-NTZNESFSSA-N

>  <CanonSites upload name>  (172) 
nan

>  <tags>  (172) 
['iter2']

>  <energy_score>  (172) 
112.768755

>  <original SMILES>  (172) 
C[C@@H]1CC[C@H](C(N)=O)CN1C(=O)[C@@H]1CSc2ccccc21

>  <ref_mols>  (172) 
A4386a

>  <Pose>  (172) 
nan

>  <distance_score>  (172) 
1.149329

>  <ConformerSites upload name>  (172) 
nan

>  <HIPPO Pose ID>  (172) 
293139

>  <Crystalforms alias>  (172) 
nan

>  <original ID>  (172) 
DPTOBIYTNLZBMB-NTZNESFSSA-N

>  <CanonSites alias>  (172) 
nan

>  <CrystalformSites alias>  (172) 
nan

>  <ref_pdb>  (172) 
A4386a

>  <CanonSites short tag>  (172) 
nan

>  <Quatassemblies alias>  (172) 
nan

>  <HIPPO Compound ID>  (172) 
122849

>  <CrystalformSites short tag>  (172) 
nan

$$$$
DPTOBIYTNLZBMB-GMXVVIOVSA-N
     RDKit          3D

 21 23  0  0  0  0  0  0  0  0999 V2000
    8.5523   15.6434   25.1669 C   0  0  0  0  0  0  0  0  0  0  0  0
    9.0088   15.6210   23.6878 C   0  0  1  0  0  0  0  0  0  0  0  0
   10.4851   16.1116   23.7312 C   0  0  0  0  0  0  0  0  0  0  0  0
   10.9419   16.5137   22.3450 C   0  0  0  0  0  0  0  0  0  0  0  0
   10.5311   15.3992   21.4143 C   0  0  2  0  0  0  0  0  0  0  0  0
   10.5981   15.8005   19.9361 C   0  0  0  0  0  0  0  0  0  0  0  0
   10.8151   14.6365   19.1217 N   0  0  0  0  0  0  0  0  0  0  0  0
   10.4946   16.9515   19.6356 O   0  0  0  0  0  0  0  0  0  0  0  0
    9.0973   15.0159   21.7579 C   0  0  0  0  0  0  0  0  0  0  0  0
    8.9300   14.1845   22.9939 N   0  0  0  0  0  0  0  0  0  0  0  0
    7.7966   13.4554   23.4826 C   0  0  0  0  0  0  0  0  0  0  0  0
    6.6693   13.4002   23.0723 O   0  0  0  0  0  0  0  0  0  0  0  0
    8.2455   12.5669   24.6583 C   0  0  2  0  0  0  0  0  0  0  0  0
    9.0030   11.3681   24.0448 C   0  0  0  0  0  0  0  0  0  0  0  0
    8.2680    9.8181   24.6167 S   0  0  0  0  0  0  0  0  0  0  0  0
    7.0471   10.6402   25.5786 C   0  0  0  0  0  0  0  0  0  0  0  0
    6.0776   10.0098   26.3452 C   0  0  0  0  0  0  0  0  0  0  0  0
    5.1990   10.7766   27.1061 C   0  0  0  0  0  0  0  0  0  0  0  0
    5.2848   12.1680   27.0740 C   0  0  0  0  0  0  0  0  0  0  0  0
    6.2510   12.7966   26.2848 C   0  0  0  0  0  0  0  0  0  0  0  0
    7.1380   12.0280   25.5313 C   0  0  0  0  0  0  0  0  0  0  0  0
  2  1  1  1
  2  3  1  0
  3  4  1  0
  4  5  1  0
  5  6  1  6
  6  7  1  0
  6  8  2  0
  5  9  1  0
  9 10  1  0
 10 11  1  0
 11 12  2  0
 13 11  1  6
 13 14  1  0
 14 15  1  0
 15 16  1  0
 16 17  2  0
 17 18  1  0
 18 19  2  0
 19 20  1  0
 20 21  2  0
 10  2  1  0
 21 13  1  0
 21 16  1  0
M  END
>  <alias>  (173) 
None

>  <Experiment code>  (173) 
nan

>  <CrystalformSites upload name>  (173) 
nan

>  <inchikey>  (173) 
DPTOBIYTNLZBMB-GMXVVIOVSA-N

>  <Crystalforms upload name>  (173) 
nan

>  <Quatassemblies upload name>  (173) 
nan

>  <ConformerSites alias>  (173) 
nan

>  <ConformerSites short tag>  (173) 
nan

>  <Crystalforms short tag>  (173) 
nan

>  <Centroid res>  (173) 
nan

>  <Quatassemblies short tag>  (173) 
nan

>  <observation_longname>  (173) 
nan

>  <name>  (173) 
DPTOBIYTNLZBMB-GMXVVIOVSA-N

>  <CanonSites upload name>  (173) 
nan

>  <tags>  (173) 
['iter2']

>  <energy_score>  (173) 
65.519107

>  <original SMILES>  (173) 
C[C@H]1CC[C@H](C(N)=O)CN1C(=O)[C@@H]1CSc2ccccc21

>  <ref_mols>  (173) 
A4386a

>  <Pose>  (173) 
nan

>  <distance_score>  (173) 
1.078062

>  <ConformerSites upload name>  (173) 
nan

>  <HIPPO Pose ID>  (173) 
293140

>  <Crystalforms alias>  (173) 
nan

>  <original ID>  (173) 
DPTOBIYTNLZBMB-GMXVVIOVSA-N

>  <CanonSites alias>  (173) 
nan

>  <CrystalformSites alias>  (173) 
nan

>  <ref_pdb>  (173) 
A4386a

>  <CanonSites short tag>  (173) 
nan

>  <Quatassemblies alias>  (173) 
nan

>  <HIPPO Compound ID>  (173) 
122849

>  <CrystalformSites short tag>  (173) 
nan

$$$$
DPTOBIYTNLZBMB-NQBHXWOUSA-N
     RDKit          3D

 21 23  0  0  0  0  0  0  0  0999 V2000
    7.7402   16.3735   23.3396 C   0  0  0  0  0  0  0  0  0  0  0  0
    8.9492   15.4068   23.4154 C   0  0  2  0  0  0  0  0  0  0  0  0
   10.3701   16.0324   23.5280 C   0  0  0  0  0  0  0  0  0  0  0  0
   11.1499   15.8803   22.2309 C   0  0  0  0  0  0  0  0  0  0  0  0
   10.1199   15.9283   21.1317 C   0  0  1  0  0  0  0  0  0  0  0  0
   10.6821   15.8209   19.6944 C   0  0  0  0  0  0  0  0  0  0  0  0
   11.3115   14.5588   19.4114 N   0  0  0  0  0  0  0  0  0  0  0  0
   10.5949   16.8147   19.0314 O   0  0  0  0  0  0  0  0  0  0  0  0
    8.9826   14.9630   21.4712 C   0  0  0  0  0  0  0  0  0  0  0  0
    8.9643   14.0611   22.6849 N   0  0  0  0  0  0  0  0  0  0  0  0
    7.9334   13.2103   23.1992 C   0  0  0  0  0  0  0  0  0  0  0  0
    6.7938   13.0671   22.8485 O   0  0  0  0  0  0  0  0  0  0  0  0
    8.4887   12.3982   24.3832 C   0  0  2  0  0  0  0  0  0  0  0  0
    9.1687   11.1248   23.8661 C   0  0  0  0  0  0  0  0  0  0  0  0
    8.2878    9.6694   24.4862 S   0  0  0  0  0  0  0  0  0  0  0  0
    7.2042   10.6285   25.4860 C   0  0  0  0  0  0  0  0  0  0  0  0
    6.2103   10.1261   26.3129 C   0  0  0  0  0  0  0  0  0  0  0  0
    5.4437   11.0111   27.0697 C   0  0  0  0  0  0  0  0  0  0  0  0
    5.6712   12.3873   26.9822 C   0  0  0  0  0  0  0  0  0  0  0  0
    6.6616   12.8873   26.1339 C   0  0  0  0  0  0  0  0  0  0  0  0
    7.4275   11.9984   25.3806 C   0  0  0  0  0  0  0  0  0  0  0  0
  2  1  1  6
  2  3  1  0
  3  4  1  0
  4  5  1  0
  5  6  1  6
  6  7  1  0
  6  8  2  0
  5  9  1  0
  9 10  1  0
 10 11  1  0
 11 12  2  0
 13 11  1  6
 13 14  1  0
 14 15  1  0
 15 16  1  0
 16 17  2  0
 17 18  1  0
 18 19  2  0
 19 20  1  0
 20 21  2  0
 10  2  1  0
 21 13  1  0
 21 16  1  0
M  END
>  <alias>  (174) 
None

>  <Experiment code>  (174) 
nan

>  <CrystalformSites upload name>  (174) 
nan

>  <inchikey>  (174) 
DPTOBIYTNLZBMB-NQBHXWOUSA-N

>  <Crystalforms upload name>  (174) 
nan

>  <Quatassemblies upload name>  (174) 
nan

>  <ConformerSites alias>  (174) 
nan

>  <ConformerSites short tag>  (174) 
nan

>  <Crystalforms short tag>  (174) 
nan

>  <Centroid res>  (174) 
nan

>  <Quatassemblies short tag>  (174) 
nan

>  <observation_longname>  (174) 
nan

>  <name>  (174) 
DPTOBIYTNLZBMB-NQBHXWOUSA-N

>  <CanonSites upload name>  (174) 
nan

>  <tags>  (174) 
['iter2']

>  <energy_score>  (174) 
189.875477

>  <original SMILES>  (174) 
C[C@@H]1CC[C@@H](C(N)=O)CN1C(=O)[C@@H]1CSc2ccccc21

>  <ref_mols>  (174) 
A4386a

>  <Pose>  (174) 
nan

>  <distance_score>  (174) 
1.098925

>  <ConformerSites upload name>  (174) 
nan

>  <HIPPO Pose ID>  (174) 
293141

>  <Crystalforms alias>  (174) 
nan

>  <original ID>  (174) 
DPTOBIYTNLZBMB-NQBHXWOUSA-N

>  <CanonSites alias>  (174) 
nan

>  <CrystalformSites alias>  (174) 
nan

>  <ref_pdb>  (174) 
A4386a

>  <CanonSites short tag>  (174) 
nan

>  <Quatassemblies alias>  (174) 
nan

>  <HIPPO Compound ID>  (174) 
122849

>  <CrystalformSites short tag>  (174) 
nan

$$$$
DPTOBIYTNLZBMB-DMDPSCGWSA-N
     RDKit          3D

 21 23  0  0  0  0  0  0  0  0999 V2000
    8.4811   15.7220   25.1376 C   0  0  0  0  0  0  0  0  0  0  0  0
    9.1077   15.6430   23.7238 C   0  0  1  0  0  0  0  0  0  0  0  0
   10.6358   15.8755   23.9181 C   0  0  0  0  0  0  0  0  0  0  0  0
   11.3729   15.6680   22.6001 C   0  0  0  0  0  0  0  0  0  0  0  0
   10.3818   16.0121   21.5101 C   0  0  1  0  0  0  0  0  0  0  0  0
   10.9032   15.7917   20.0810 C   0  0  0  0  0  0  0  0  0  0  0  0
   10.1636   16.6226   19.1459 N   0  0  0  0  0  0  0  0  0  0  0  0
   11.7635   14.9808   19.8910 O   0  0  0  0  0  0  0  0  0  0  0  0
    9.1023   15.1801   21.7585 C   0  0  0  0  0  0  0  0  0  0  0  0
    8.9628   14.2758   22.9752 N   0  0  0  0  0  0  0  0  0  0  0  0
    7.8333   13.5518   23.4755 C   0  0  0  0  0  0  0  0  0  0  0  0
    6.6876   13.5466   23.1134 O   0  0  0  0  0  0  0  0  0  0  0  0
    8.3211   12.5954   24.5871 C   0  0  2  0  0  0  0  0  0  0  0  0
    9.0736   11.4145   23.9463 C   0  0  0  0  0  0  0  0  0  0  0  0
    8.3454    9.8519   24.5027 S   0  0  0  0  0  0  0  0  0  0  0  0
    7.1389   10.6551   25.4978 C   0  0  0  0  0  0  0  0  0  0  0  0
    6.1775   10.0136   26.2647 C   0  0  0  0  0  0  0  0  0  0  0  0
    5.3110   10.7691   27.0512 C   0  0  0  0  0  0  0  0  0  0  0  0
    5.4044   12.1611   27.0489 C   0  0  0  0  0  0  0  0  0  0  0  0
    6.3631   12.8014   26.2601 C   0  0  0  0  0  0  0  0  0  0  0  0
    7.2321   12.0428   25.4757 C   0  0  0  0  0  0  0  0  0  0  0  0
  2  1  1  1
  2  3  1  0
  3  4  1  0
  4  5  1  0
  5  6  1  6
  6  7  1  0
  6  8  2  0
  5  9  1  0
  9 10  1  0
 10 11  1  0
 11 12  2  0
 13 11  1  6
 13 14  1  0
 14 15  1  0
 15 16  1  0
 16 17  2  0
 17 18  1  0
 18 19  2  0
 19 20  1  0
 20 21  2  0
 10  2  1  0
 21 13  1  0
 21 16  1  0
M  END
>  <alias>  (175) 
None

>  <Experiment code>  (175) 
nan

>  <CrystalformSites upload name>  (175) 
nan

>  <inchikey>  (175) 
DPTOBIYTNLZBMB-DMDPSCGWSA-N

>  <Crystalforms upload name>  (175) 
nan

>  <Quatassemblies upload name>  (175) 
nan

>  <ConformerSites alias>  (175) 
nan

>  <ConformerSites short tag>  (175) 
nan

>  <Crystalforms short tag>  (175) 
nan

>  <Centroid res>  (175) 
nan

>  <Quatassemblies short tag>  (175) 
nan

>  <observation_longname>  (175) 
nan

>  <name>  (175) 
DPTOBIYTNLZBMB-DMDPSCGWSA-N

>  <CanonSites upload name>  (175) 
nan

>  <tags>  (175) 
['iter2']

>  <energy_score>  (175) 
171.58113

>  <original SMILES>  (175) 
C[C@H]1CC[C@@H](C(N)=O)CN1C(=O)[C@@H]1CSc2ccccc21

>  <ref_mols>  (175) 
A4386a

>  <Pose>  (175) 
nan

>  <distance_score>  (175) 
1.091036

>  <ConformerSites upload name>  (175) 
nan

>  <HIPPO Pose ID>  (175) 
293142

>  <Crystalforms alias>  (175) 
nan

>  <original ID>  (175) 
DPTOBIYTNLZBMB-DMDPSCGWSA-N

>  <CanonSites alias>  (175) 
nan

>  <CrystalformSites alias>  (175) 
nan

>  <ref_pdb>  (175) 
A4386a

>  <CanonSites short tag>  (175) 
nan

>  <Quatassemblies alias>  (175) 
nan

>  <HIPPO Compound ID>  (175) 
122849

>  <CrystalformSites short tag>  (175) 
nan

$$$$
DPTOBIYTNLZBMB-MDZLAQPJSA-N
     RDKit          3D

 21 23  0  0  0  0  0  0  0  0999 V2000
   10.5015   15.5784   24.7835 C   0  0  0  0  0  0  0  0  0  0  0  0
   10.0269   14.5238   23.7452 C   0  0  2  0  0  0  0  0  0  0  0  0
   11.0810   14.1401   22.6974 C   0  0  0  0  0  0  0  0  0  0  0  0
   11.1606   15.1684   21.5993 C   0  0  0  0  0  0  0  0  0  0  0  0
    9.7352   15.5473   21.2535 C   0  0  2  0  0  0  0  0  0  0  0  0
    9.7516   16.8193   20.4087 C   0  0  0  0  0  0  0  0  0  0  0  0
   10.0542   16.5359   19.0182 N   0  0  0  0  0  0  0  0  0  0  0  0
    9.5948   17.8620   20.9751 O   0  0  0  0  0  0  0  0  0  0  0  0
    8.9526   15.7503   22.5698 C   0  0  0  0  0  0  0  0  0  0  0  0
    8.5427   14.4778   23.2728 N   0  0  0  0  0  0  0  0  0  0  0  0
    7.6727   14.2657   24.3983 C   0  0  0  0  0  0  0  0  0  0  0  0
    7.1243   15.0557   25.1202 O   0  0  0  0  0  0  0  0  0  0  0  0
    7.3913   12.7414   24.5426 C   0  0  1  0  0  0  0  0  0  0  0  0
    8.5657   11.7625   24.4678 C   0  0  0  0  0  0  0  0  0  0  0  0
    7.9123   10.1295   24.9078 S   0  0  0  0  0  0  0  0  0  0  0  0
    6.6574   10.8644   25.9112 C   0  0  0  0  0  0  0  0  0  0  0  0
    5.8372   10.1823   26.7978 C   0  0  0  0  0  0  0  0  0  0  0  0
    4.9124   10.9012   27.5486 C   0  0  0  0  0  0  0  0  0  0  0  0
    4.7955   12.2819   27.3744 C   0  0  0  0  0  0  0  0  0  0  0  0
    5.5941   12.9541   26.4429 C   0  0  0  0  0  0  0  0  0  0  0  0
    6.5470   12.2490   25.7132 C   0  0  0  0  0  0  0  0  0  0  0  0
  2  1  1  6
  2  3  1  0
  3  4  1  0
  4  5  1  0
  5  6  1  1
  6  7  1  0
  6  8  2  0
  5  9  1  0
  9 10  1  0
 10 11  1  0
 11 12  2  0
 13 11  1  1
 13 14  1  0
 14 15  1  0
 15 16  1  0
 16 17  2  0
 17 18  1  0
 18 19  2  0
 19 20  1  0
 20 21  2  0
 10  2  1  0
 21 13  1  0
 21 16  1  0
M  END
>  <alias>  (176) 
None

>  <Experiment code>  (176) 
nan

>  <CrystalformSites upload name>  (176) 
nan

>  <inchikey>  (176) 
DPTOBIYTNLZBMB-MDZLAQPJSA-N

>  <Crystalforms upload name>  (176) 
nan

>  <Quatassemblies upload name>  (176) 
nan

>  <ConformerSites alias>  (176) 
nan

>  <ConformerSites short tag>  (176) 
nan

>  <Crystalforms short tag>  (176) 
nan

>  <Centroid res>  (176) 
nan

>  <Quatassemblies short tag>  (176) 
nan

>  <observation_longname>  (176) 
nan

>  <name>  (176) 
DPTOBIYTNLZBMB-MDZLAQPJSA-N

>  <CanonSites upload name>  (176) 
nan

>  <tags>  (176) 
['iter2']

>  <energy_score>  (176) 
177.566182

>  <original SMILES>  (176) 
C[C@@H]1CC[C@H](C(N)=O)CN1C(=O)[C@H]1CSc2ccccc21

>  <ref_mols>  (176) 
A4386a

>  <Pose>  (176) 
nan

>  <distance_score>  (176) 
1.620966

>  <ConformerSites upload name>  (176) 
nan

>  <HIPPO Pose ID>  (176) 
293143

>  <Crystalforms alias>  (176) 
nan

>  <original ID>  (176) 
DPTOBIYTNLZBMB-MDZLAQPJSA-N

>  <CanonSites alias>  (176) 
nan

>  <CrystalformSites alias>  (176) 
nan

>  <ref_pdb>  (176) 
A4386a

>  <CanonSites short tag>  (176) 
nan

>  <Quatassemblies alias>  (176) 
nan

>  <HIPPO Compound ID>  (176) 
122849

>  <CrystalformSites short tag>  (176) 
nan

$$$$
DPTOBIYTNLZBMB-GVXVVHGQSA-N
     RDKit          3D

 21 23  0  0  0  0  0  0  0  0999 V2000
    9.2939   14.6852   25.9196 C   0  0  0  0  0  0  0  0  0  0  0  0
    9.4794   15.0839   24.4330 C   0  0  1  0  0  0  0  0  0  0  0  0
   10.9087   14.6365   24.0321 C   0  0  0  0  0  0  0  0  0  0  0  0
   11.2804   15.1807   22.6664 C   0  0  0  0  0  0  0  0  0  0  0  0
   10.0623   15.0995   21.7717 C   0  0  2  0  0  0  0  0  0  0  0  0
   10.3134   15.8432   20.4667 C   0  0  0  0  0  0  0  0  0  0  0  0
   10.8651   14.9416   19.4733 N   0  0  0  0  0  0  0  0  0  0  0  0
   10.1175   17.0231   20.4252 O   0  0  0  0  0  0  0  0  0  0  0  0
    8.8638   15.6076   22.5674 C   0  0  0  0  0  0  0  0  0  0  0  0
    8.3891   14.4690   23.4348 N   0  0  0  0  0  0  0  0  0  0  0  0
    7.1580   14.2697   24.1123 C   0  0  0  0  0  0  0  0  0  0  0  0
    6.2116   14.9991   24.2437 O   0  0  0  0  0  0  0  0  0  0  0  0
    7.1008   12.8247   24.6302 C   0  0  1  0  0  0  0  0  0  0  0  0
    8.2459   11.8314   24.3763 C   0  0  0  0  0  0  0  0  0  0  0  0
    7.6874   10.2527   25.0986 S   0  0  0  0  0  0  0  0  0  0  0  0
    6.5454   11.0712   26.1814 C   0  0  0  0  0  0  0  0  0  0  0  0
    5.7921   10.4556   27.1689 C   0  0  0  0  0  0  0  0  0  0  0  0
    4.9756   11.2455   27.9745 C   0  0  0  0  0  0  0  0  0  0  0  0
    4.9031   12.6278   27.7644 C   0  0  0  0  0  0  0  0  0  0  0  0
    5.6218   13.2329   26.7293 C   0  0  0  0  0  0  0  0  0  0  0  0
    6.4427   12.4487   25.9307 C   0  0  0  0  0  0  0  0  0  0  0  0
  2  1  1  1
  2  3  1  0
  3  4  1  0
  4  5  1  0
  5  6  1  6
  6  7  1  0
  6  8  2  0
  5  9  1  0
  9 10  1  0
 10 11  1  0
 11 12  2  0
 13 11  1  1
 13 14  1  0
 14 15  1  0
 15 16  1  0
 16 17  2  0
 17 18  1  0
 18 19  2  0
 19 20  1  0
 20 21  2  0
 10  2  1  0
 21 13  1  0
 21 16  1  0
M  END
>  <alias>  (177) 
None

>  <Experiment code>  (177) 
nan

>  <CrystalformSites upload name>  (177) 
nan

>  <inchikey>  (177) 
DPTOBIYTNLZBMB-GVXVVHGQSA-N

>  <Crystalforms upload name>  (177) 
nan

>  <Quatassemblies upload name>  (177) 
nan

>  <ConformerSites alias>  (177) 
nan

>  <ConformerSites short tag>  (177) 
nan

>  <Crystalforms short tag>  (177) 
nan

>  <Centroid res>  (177) 
nan

>  <Quatassemblies short tag>  (177) 
nan

>  <observation_longname>  (177) 
nan

>  <name>  (177) 
DPTOBIYTNLZBMB-GVXVVHGQSA-N

>  <CanonSites upload name>  (177) 
nan

>  <tags>  (177) 
['iter2']

>  <energy_score>  (177) 
160.614753

>  <original SMILES>  (177) 
C[C@H]1CC[C@H](C(N)=O)CN1C(=O)[C@H]1CSc2ccccc21

>  <ref_mols>  (177) 
A4386a

>  <Pose>  (177) 
nan

>  <distance_score>  (177) 
1.646022

>  <ConformerSites upload name>  (177) 
nan

>  <HIPPO Pose ID>  (177) 
293144

>  <Crystalforms alias>  (177) 
nan

>  <original ID>  (177) 
DPTOBIYTNLZBMB-GVXVVHGQSA-N

>  <CanonSites alias>  (177) 
nan

>  <CrystalformSites alias>  (177) 
nan

>  <ref_pdb>  (177) 
A4386a

>  <CanonSites short tag>  (177) 
nan

>  <Quatassemblies alias>  (177) 
nan

>  <HIPPO Compound ID>  (177) 
122849

>  <CrystalformSites short tag>  (177) 
nan

$$$$
DPTOBIYTNLZBMB-WZRBSPASSA-N
     RDKit          3D

 21 23  0  0  0  0  0  0  0  0999 V2000
   10.0304   15.8417   25.5889 C   0  0  0  0  0  0  0  0  0  0  0  0
    9.8945   14.6361   24.6203 C   0  0  2  0  0  0  0  0  0  0  0  0
   11.2316   14.1314   24.0345 C   0  0  0  0  0  0  0  0  0  0  0  0
   11.1471   14.1856   22.5262 C   0  0  0  0  0  0  0  0  0  0  0  0
   10.5297   15.5204   22.1927 C   0  0  1  0  0  0  0  0  0  0  0  0
   10.3276   15.9578   20.7234 C   0  0  0  0  0  0  0  0  0  0  0  0
   10.4254   14.9131   19.7354 N   0  0  0  0  0  0  0  0  0  0  0  0
   10.1424   17.1366   20.5977 O   0  0  0  0  0  0  0  0  0  0  0  0
    9.2441   15.6929   23.0346 C   0  0  0  0  0  0  0  0  0  0  0  0
    8.6669   14.4505   23.6773 N   0  0  0  0  0  0  0  0  0  0  0  0
    7.4805   14.2658   24.4496 C   0  0  0  0  0  0  0  0  0  0  0  0
    6.6859   15.0671   24.8629 O   0  0  0  0  0  0  0  0  0  0  0  0
    7.2255   12.7492   24.6376 C   0  0  1  0  0  0  0  0  0  0  0  0
    8.3818   11.7567   24.4327 C   0  0  0  0  0  0  0  0  0  0  0  0
    7.7642   10.1301   24.9502 S   0  0  0  0  0  0  0  0  0  0  0  0
    6.5764   10.8711   26.0307 C   0  0  0  0  0  0  0  0  0  0  0  0
    5.7941   10.1885   26.9502 C   0  0  0  0  0  0  0  0  0  0  0  0
    4.9365   10.9122   27.7730 C   0  0  0  0  0  0  0  0  0  0  0  0
    4.8518   12.3008   27.6445 C   0  0  0  0  0  0  0  0  0  0  0  0
    5.6067   12.9757   26.6797 C   0  0  0  0  0  0  0  0  0  0  0  0
    6.4792   12.2607   25.8657 C   0  0  0  0  0  0  0  0  0  0  0  0
  2  1  1  6
  2  3  1  0
  3  4  1  0
  4  5  1  0
  5  6  1  6
  6  7  1  0
  6  8  2  0
  5  9  1  0
  9 10  1  0
 10 11  1  0
 11 12  2  0
 13 11  1  1
 13 14  1  0
 14 15  1  0
 15 16  1  0
 16 17  2  0
 17 18  1  0
 18 19  2  0
 19 20  1  0
 20 21  2  0
 10  2  1  0
 21 13  1  0
 21 16  1  0
M  END
>  <alias>  (178) 
None

>  <Experiment code>  (178) 
nan

>  <CrystalformSites upload name>  (178) 
nan

>  <inchikey>  (178) 
DPTOBIYTNLZBMB-WZRBSPASSA-N

>  <Crystalforms upload name>  (178) 
nan

>  <Quatassemblies upload name>  (178) 
nan

>  <ConformerSites alias>  (178) 
nan

>  <ConformerSites short tag>  (178) 
nan

>  <Crystalforms short tag>  (178) 
nan

>  <Centroid res>  (178) 
nan

>  <Quatassemblies short tag>  (178) 
nan

>  <observation_longname>  (178) 
nan

>  <name>  (178) 
DPTOBIYTNLZBMB-WZRBSPASSA-N

>  <CanonSites upload name>  (178) 
nan

>  <tags>  (178) 
['iter2']

>  <energy_score>  (178) 
199.087667

>  <original SMILES>  (178) 
C[C@@H]1CC[C@@H](C(N)=O)CN1C(=O)[C@H]1CSc2ccccc21

>  <ref_mols>  (178) 
A4386a

>  <Pose>  (178) 
nan

>  <distance_score>  (178) 
1.673318

>  <ConformerSites upload name>  (178) 
nan

>  <HIPPO Pose ID>  (178) 
293145

>  <Crystalforms alias>  (178) 
nan

>  <original ID>  (178) 
DPTOBIYTNLZBMB-WZRBSPASSA-N

>  <CanonSites alias>  (178) 
nan

>  <CrystalformSites alias>  (178) 
nan

>  <ref_pdb>  (178) 
A4386a

>  <CanonSites short tag>  (178) 
nan

>  <Quatassemblies alias>  (178) 
nan

>  <HIPPO Compound ID>  (178) 
122849

>  <CrystalformSites short tag>  (178) 
nan

$$$$
DPTOBIYTNLZBMB-LOWVWBTDSA-N
     RDKit          3D

 21 23  0  0  0  0  0  0  0  0999 V2000
    9.3037   15.2559   25.1918 C   0  0  0  0  0  0  0  0  0  0  0  0
    9.6086   15.5165   23.6916 C   0  0  1  0  0  0  0  0  0  0  0  0
   11.1060   15.2156   23.4848 C   0  0  0  0  0  0  0  0  0  0  0  0
   11.5049   15.3410   22.0260 C   0  0  0  0  0  0  0  0  0  0  0  0
   10.4356   16.0809   21.2440 C   0  0  1  0  0  0  0  0  0  0  0  0
   10.5042   15.9733   19.6963 C   0  0  0  0  0  0  0  0  0  0  0  0
   10.6250   14.6323   19.1975 N   0  0  0  0  0  0  0  0  0  0  0  0
   10.4760   17.0200   19.1169 O   0  0  0  0  0  0  0  0  0  0  0  0
    9.0241   15.8335   21.7868 C   0  0  0  0  0  0  0  0  0  0  0  0
    8.7615   14.6501   22.6781 N   0  0  0  0  0  0  0  0  0  0  0  0
    7.5613   14.2022   23.2964 C   0  0  0  0  0  0  0  0  0  0  0  0
    6.4693   14.7052   23.3387 O   0  0  0  0  0  0  0  0  0  0  0  0
    7.7341   12.8052   23.8955 C   0  0  1  0  0  0  0  0  0  0  0  0
    9.0477   12.0267   23.8445 C   0  0  0  0  0  0  0  0  0  0  0  0
    8.5785   10.3609   24.4450 S   0  0  0  0  0  0  0  0  0  0  0  0
    7.2582   11.0262   25.4290 C   0  0  0  0  0  0  0  0  0  0  0  0
    6.4784   10.3296   26.3345 C   0  0  0  0  0  0  0  0  0  0  0  0
    5.5221   11.0251   27.0724 C   0  0  0  0  0  0  0  0  0  0  0  0
    5.3404   12.3984   26.8715 C   0  0  0  0  0  0  0  0  0  0  0  0
    6.0780   13.0804   25.8988 C   0  0  0  0  0  0  0  0  0  0  0  0
    7.0267   12.3837   25.1617 C   0  0  0  0  0  0  0  0  0  0  0  0
  2  1  1  1
  2  3  1  0
  3  4  1  0
  4  5  1  0
  5  6  1  6
  6  7  1  0
  6  8  2  0
  5  9  1  0
  9 10  1  0
 10 11  1  0
 11 12  2  0
 13 11  1  1
 13 14  1  0
 14 15  1  0
 15 16  1  0
 16 17  2  0
 17 18  1  0
 18 19  2  0
 19 20  1  0
 20 21  2  0
 10  2  1  0
 21 13  1  0
 21 16  1  0
M  END
>  <alias>  (179) 
None

>  <Experiment code>  (179) 
nan

>  <CrystalformSites upload name>  (179) 
nan

>  <inchikey>  (179) 
DPTOBIYTNLZBMB-LOWVWBTDSA-N

>  <Crystalforms upload name>  (179) 
nan

>  <Quatassemblies upload name>  (179) 
nan

>  <ConformerSites alias>  (179) 
nan

>  <ConformerSites short tag>  (179) 
nan

>  <Crystalforms short tag>  (179) 
nan

>  <Centroid res>  (179) 
nan

>  <Quatassemblies short tag>  (179) 
nan

>  <observation_longname>  (179) 
nan

>  <name>  (179) 
DPTOBIYTNLZBMB-LOWVWBTDSA-N

>  <CanonSites upload name>  (179) 
nan

>  <tags>  (179) 
['iter2']

>  <energy_score>  (179) 
168.39258

>  <original SMILES>  (179) 
C[C@H]1CC[C@@H](C(N)=O)CN1C(=O)[C@H]1CSc2ccccc21

>  <ref_mols>  (179) 
A4386a

>  <Pose>  (179) 
nan

>  <distance_score>  (179) 
1.197503

>  <ConformerSites upload name>  (179) 
nan

>  <HIPPO Pose ID>  (179) 
293146

>  <Crystalforms alias>  (179) 
nan

>  <original ID>  (179) 
DPTOBIYTNLZBMB-LOWVWBTDSA-N

>  <CanonSites alias>  (179) 
nan

>  <CrystalformSites alias>  (179) 
nan

>  <ref_pdb>  (179) 
A4386a

>  <CanonSites short tag>  (179) 
nan

>  <Quatassemblies alias>  (179) 
nan

>  <HIPPO Compound ID>  (179) 
122849

>  <CrystalformSites short tag>  (179) 
nan

$$$$
SSKNNSPYZGBIMN-GMXVVIOVSA-N
     RDKit          3D

 21 23  0  0  0  0  0  0  0  0999 V2000
   11.4540   14.8241   24.4446 C   0  0  0  0  0  0  0  0  0  0  0  0
   10.6870   15.6050   23.3760 C   0  0  1  0  0  0  0  0  0  0  0  0
   11.0794   15.1203   21.9804 C   0  0  0  0  0  0  0  0  0  0  0  0
    9.9134   15.2676   21.0082 C   0  0  2  0  0  0  0  0  0  0  0  0
    9.9404   16.6466   20.3493 C   0  0  0  0  0  0  0  0  0  0  0  0
    9.9852   16.5880   18.9006 N   0  0  0  0  0  0  0  0  0  0  0  0
    9.9227   17.5878   21.0924 O   0  0  0  0  0  0  0  0  0  0  0  0
    8.5714   15.1098   21.7427 C   0  0  0  0  0  0  0  0  0  0  0  0
    8.5653   14.2461   22.9751 N   0  0  0  0  0  0  0  0  0  0  0  0
    7.4806   13.7726   23.7768 C   0  0  0  0  0  0  0  0  0  0  0  0
    6.3070   14.0171   23.7224 O   0  0  0  0  0  0  0  0  0  0  0  0
    8.0500   12.7748   24.8149 C   0  0  2  0  0  0  0  0  0  0  0  0
    8.8076   11.6291   24.1129 C   0  0  0  0  0  0  0  0  0  0  0  0
    8.1712   10.0281   24.6749 S   0  0  0  0  0  0  0  0  0  0  0  0
    6.9530   10.7675   25.7037 C   0  0  0  0  0  0  0  0  0  0  0  0
    6.0220   10.0793   26.4676 C   0  0  0  0  0  0  0  0  0  0  0  0
    5.1542   10.7924   27.2926 C   0  0  0  0  0  0  0  0  0  0  0  0
    5.2171   12.1868   27.3339 C   0  0  0  0  0  0  0  0  0  0  0  0
    6.1440   12.8738   26.5478 C   0  0  0  0  0  0  0  0  0  0  0  0
    7.0093   12.1575   25.7206 C   0  0  0  0  0  0  0  0  0  0  0  0
    9.1638   15.5030   23.5901 C   0  0  0  0  0  0  0  0  0  0  0  0
  2  1  1  1
  2  3  1  0
  3  4  1  0
  4  5  1  1
  5  6  1  0
  5  7  2  0
  4  8  1  0
  8  9  1  0
  9 10  1  0
 10 11  2  0
 12 10  1  6
 12 13  1  0
 13 14  1  0
 14 15  1  0
 15 16  2  0
 16 17  1  0
 17 18  2  0
 18 19  1  0
 19 20  2  0
  9 21  1  0
 21  2  1  0
 20 12  1  0
 20 15  1  0
M  END
>  <alias>  (180) 
None

>  <Experiment code>  (180) 
nan

>  <CrystalformSites upload name>  (180) 
nan

>  <inchikey>  (180) 
SSKNNSPYZGBIMN-GMXVVIOVSA-N

>  <Crystalforms upload name>  (180) 
nan

>  <Quatassemblies upload name>  (180) 
nan

>  <ConformerSites alias>  (180) 
nan

>  <ConformerSites short tag>  (180) 
nan

>  <Crystalforms short tag>  (180) 
nan

>  <Centroid res>  (180) 
nan

>  <Quatassemblies short tag>  (180) 
nan

>  <observation_longname>  (180) 
nan

>  <name>  (180) 
SSKNNSPYZGBIMN-GMXVVIOVSA-N

>  <CanonSites upload name>  (180) 
nan

>  <tags>  (180) 
['iter2']

>  <energy_score>  (180) 
101.276458

>  <original SMILES>  (180) 
C[C@H]1C[C@H](C(N)=O)CN(C(=O)[C@@H]2CSc3ccccc32)C1

>  <ref_mols>  (180) 
A4386a

>  <Pose>  (180) 
nan

>  <distance_score>  (180) 
1.297116

>  <ConformerSites upload name>  (180) 
nan

>  <HIPPO Pose ID>  (180) 
293147

>  <Crystalforms alias>  (180) 
nan

>  <original ID>  (180) 
SSKNNSPYZGBIMN-GMXVVIOVSA-N

>  <CanonSites alias>  (180) 
nan

>  <CrystalformSites alias>  (180) 
nan

>  <ref_pdb>  (180) 
A4386a

>  <CanonSites short tag>  (180) 
nan

>  <Quatassemblies alias>  (180) 
nan

>  <HIPPO Compound ID>  (180) 
122847

>  <CrystalformSites short tag>  (180) 
nan

$$$$
SSKNNSPYZGBIMN-NQBHXWOUSA-N
     RDKit          3D

 21 23  0  0  0  0  0  0  0  0999 V2000
   11.2728   15.2737   25.0531 C   0  0  0  0  0  0  0  0  0  0  0  0
   10.0643   15.2377   24.1422 C   0  0  2  0  0  0  0  0  0  0  0  0
   10.1441   16.2616   23.0282 C   0  0  0  0  0  0  0  0  0  0  0  0
    8.7590   16.3664   22.3918 C   0  0  1  0  0  0  0  0  0  0  0  0
    8.6569   15.3491   21.2453 C   0  0  0  0  0  0  0  0  0  0  0  0
    9.4412   15.7957   20.1033 N   0  0  0  0  0  0  0  0  0  0  0  0
    8.0320   14.3387   21.4167 O   0  0  0  0  0  0  0  0  0  0  0  0
    7.6291   16.1652   23.4397 C   0  0  0  0  0  0  0  0  0  0  0  0
    7.5887   14.8825   24.2504 N   0  0  0  0  0  0  0  0  0  0  0  0
    6.6532   14.4276   25.2327 C   0  0  0  0  0  0  0  0  0  0  0  0
    5.7117   14.9846   25.7308 O   0  0  0  0  0  0  0  0  0  0  0  0
    7.1125   13.0230   25.6958 C   0  0  2  0  0  0  0  0  0  0  0  0
    7.6203   12.1482   24.5324 C   0  0  0  0  0  0  0  0  0  0  0  0
    7.5544   10.4271   25.0992 S   0  0  0  0  0  0  0  0  0  0  0  0
    6.2577   10.8084   26.2340 C   0  0  0  0  0  0  0  0  0  0  0  0
    5.4725    9.8842   26.9010 C   0  0  0  0  0  0  0  0  0  0  0  0
    4.5479   10.3272   27.8428 C   0  0  0  0  0  0  0  0  0  0  0  0
    4.4131   11.6925   28.0985 C   0  0  0  0  0  0  0  0  0  0  0  0
    5.2001   12.6209   27.4134 C   0  0  0  0  0  0  0  0  0  0  0  0
    6.1136   12.1793   26.4589 C   0  0  0  0  0  0  0  0  0  0  0  0
    8.7758   15.5242   24.9233 C   0  0  0  0  0  0  0  0  0  0  0  0
  2  1  1  1
  2  3  1  0
  3  4  1  0
  4  5  1  6
  5  6  1  0
  5  7  2  0
  4  8  1  0
  8  9  1  0
  9 10  1  0
 10 11  2  0
 12 10  1  6
 12 13  1  0
 13 14  1  0
 14 15  1  0
 15 16  2  0
 16 17  1  0
 17 18  2  0
 18 19  1  0
 19 20  2  0
  9 21  1  0
 21  2  1  0
 20 12  1  0
 20 15  1  0
M  END
>  <alias>  (181) 
None

>  <Experiment code>  (181) 
nan

>  <CrystalformSites upload name>  (181) 
nan

>  <inchikey>  (181) 
SSKNNSPYZGBIMN-NQBHXWOUSA-N

>  <Crystalforms upload name>  (181) 
nan

>  <Quatassemblies upload name>  (181) 
nan

>  <ConformerSites alias>  (181) 
nan

>  <ConformerSites short tag>  (181) 
nan

>  <Crystalforms short tag>  (181) 
nan

>  <Centroid res>  (181) 
nan

>  <Quatassemblies short tag>  (181) 
nan

>  <observation_longname>  (181) 
nan

>  <name>  (181) 
SSKNNSPYZGBIMN-NQBHXWOUSA-N

>  <CanonSites upload name>  (181) 
nan

>  <tags>  (181) 
['iter2']

>  <energy_score>  (181) 
121.211142

>  <original SMILES>  (181) 
C[C@@H]1C[C@@H](C(N)=O)CN(C(=O)[C@@H]2CSc3ccccc32)C1

>  <ref_mols>  (181) 
A4386a

>  <Pose>  (181) 
nan

>  <distance_score>  (181) 
2.317369

>  <ConformerSites upload name>  (181) 
nan

>  <HIPPO Pose ID>  (181) 
293148

>  <Crystalforms alias>  (181) 
nan

>  <original ID>  (181) 
SSKNNSPYZGBIMN-NQBHXWOUSA-N

>  <CanonSites alias>  (181) 
nan

>  <CrystalformSites alias>  (181) 
nan

>  <ref_pdb>  (181) 
A4386a

>  <CanonSites short tag>  (181) 
nan

>  <Quatassemblies alias>  (181) 
nan

>  <HIPPO Compound ID>  (181) 
122847

>  <CrystalformSites short tag>  (181) 
nan

$$$$
SSKNNSPYZGBIMN-DMDPSCGWSA-N
     RDKit          3D

 21 23  0  0  0  0  0  0  0  0999 V2000
   11.4039   14.6116   24.8577 C   0  0  0  0  0  0  0  0  0  0  0  0
   10.7806   15.6277   23.8995 C   0  0  1  0  0  0  0  0  0  0  0  0
   11.4385   15.5260   22.5239 C   0  0  0  0  0  0  0  0  0  0  0  0
   10.4038   15.9715   21.5113 C   0  0  1  0  0  0  0  0  0  0  0  0
   10.8557   15.7988   20.0476 C   0  0  0  0  0  0  0  0  0  0  0  0
   10.1073   16.6917   19.1792 N   0  0  0  0  0  0  0  0  0  0  0  0
   11.6721   14.9613   19.7876 O   0  0  0  0  0  0  0  0  0  0  0  0
    9.0977   15.1815   21.7755 C   0  0  0  0  0  0  0  0  0  0  0  0
    8.9616   14.1940   22.9302 N   0  0  0  0  0  0  0  0  0  0  0  0
    7.8120   13.5211   23.4516 C   0  0  0  0  0  0  0  0  0  0  0  0
    6.6498   13.6318   23.1704 O   0  0  0  0  0  0  0  0  0  0  0  0
    8.2812   12.5519   24.5588 C   0  0  2  0  0  0  0  0  0  0  0  0
    9.0113   11.3461   23.9496 C   0  0  0  0  0  0  0  0  0  0  0  0
    8.2694    9.8130   24.5717 S   0  0  0  0  0  0  0  0  0  0  0  0
    7.0742   10.6636   25.5412 C   0  0  0  0  0  0  0  0  0  0  0  0
    6.1083   10.0679   26.3384 C   0  0  0  0  0  0  0  0  0  0  0  0
    5.2584   10.8710   27.0971 C   0  0  0  0  0  0  0  0  0  0  0  0
    5.3727   12.2619   27.0389 C   0  0  0  0  0  0  0  0  0  0  0  0
    6.3362   12.8555   26.2213 C   0  0  0  0  0  0  0  0  0  0  0  0
    7.1850   12.0476   25.4646 C   0  0  0  0  0  0  0  0  0  0  0  0
    9.2507   15.4374   23.7424 C   0  0  0  0  0  0  0  0  0  0  0  0
  2  1  1  1
  2  3  1  0
  3  4  1  0
  4  5  1  6
  5  6  1  0
  5  7  2  0
  4  8  1  0
  8  9  1  0
  9 10  1  0
 10 11  2  0
 12 10  1  6
 12 13  1  0
 13 14  1  0
 14 15  1  0
 15 16  2  0
 16 17  1  0
 17 18  2  0
 18 19  1  0
 19 20  2  0
  9 21  1  0
 21  2  1  0
 20 12  1  0
 20 15  1  0
M  END
>  <alias>  (182) 
None

>  <Experiment code>  (182) 
nan

>  <CrystalformSites upload name>  (182) 
nan

>  <inchikey>  (182) 
SSKNNSPYZGBIMN-DMDPSCGWSA-N

>  <Crystalforms upload name>  (182) 
nan

>  <Quatassemblies upload name>  (182) 
nan

>  <ConformerSites alias>  (182) 
nan

>  <ConformerSites short tag>  (182) 
nan

>  <Crystalforms short tag>  (182) 
nan

>  <Centroid res>  (182) 
nan

>  <Quatassemblies short tag>  (182) 
nan

>  <observation_longname>  (182) 
nan

>  <name>  (182) 
SSKNNSPYZGBIMN-DMDPSCGWSA-N

>  <CanonSites upload name>  (182) 
nan

>  <tags>  (182) 
['iter2']

>  <energy_score>  (182) 
188.918297

>  <original SMILES>  (182) 
C[C@H]1C[C@@H](C(N)=O)CN(C(=O)[C@@H]2CSc3ccccc32)C1

>  <ref_mols>  (182) 
A4386a

>  <Pose>  (182) 
nan

>  <distance_score>  (182) 
1.096556

>  <ConformerSites upload name>  (182) 
nan

>  <HIPPO Pose ID>  (182) 
293149

>  <Crystalforms alias>  (182) 
nan

>  <original ID>  (182) 
SSKNNSPYZGBIMN-DMDPSCGWSA-N

>  <CanonSites alias>  (182) 
nan

>  <CrystalformSites alias>  (182) 
nan

>  <ref_pdb>  (182) 
A4386a

>  <CanonSites short tag>  (182) 
nan

>  <Quatassemblies alias>  (182) 
nan

>  <HIPPO Compound ID>  (182) 
122847

>  <CrystalformSites short tag>  (182) 
nan

$$$$
SSKNNSPYZGBIMN-MDZLAQPJSA-N
     RDKit          3D

 21 23  0  0  0  0  0  0  0  0999 V2000
   12.0461   13.8693   24.8511 C   0  0  0  0  0  0  0  0  0  0  0  0
   10.8775   13.8712   23.8803 C   0  0  2  0  0  0  0  0  0  0  0  0
   11.2298   14.5621   22.5765 C   0  0  0  0  0  0  0  0  0  0  0  0
    9.9379   14.9196   21.8577 C   0  0  2  0  0  0  0  0  0  0  0  0
   10.2662   15.8401   20.6915 C   0  0  0  0  0  0  0  0  0  0  0  0
   10.7701   15.0603   19.5740 N   0  0  0  0  0  0  0  0  0  0  0  0
   10.1587   17.0240   20.8303 O   0  0  0  0  0  0  0  0  0  0  0  0
    8.9491   15.4942   22.8858 C   0  0  0  0  0  0  0  0  0  0  0  0
    8.3714   14.3347   23.6780 N   0  0  0  0  0  0  0  0  0  0  0  0
    7.2403   14.2684   24.5434 C   0  0  0  0  0  0  0  0  0  0  0  0
    6.5083   15.1348   24.9381 O   0  0  0  0  0  0  0  0  0  0  0  0
    6.9841   12.7750   24.8570 C   0  0  1  0  0  0  0  0  0  0  0  0
    8.1299   11.7603   24.7049 C   0  0  0  0  0  0  0  0  0  0  0  0
    7.4760   10.1631   25.2613 S   0  0  0  0  0  0  0  0  0  0  0  0
    6.3145   10.9673   26.3271 C   0  0  0  0  0  0  0  0  0  0  0  0
    5.5524   10.3333   27.2966 C   0  0  0  0  0  0  0  0  0  0  0  0
    4.7129   11.1067   28.0921 C   0  0  0  0  0  0  0  0  0  0  0  0
    4.6331   12.4897   27.8925 C   0  0  0  0  0  0  0  0  0  0  0  0
    5.3787   13.1146   26.8873 C   0  0  0  0  0  0  0  0  0  0  0  0
    6.2315   12.3524   26.1001 C   0  0  0  0  0  0  0  0  0  0  0  0
    9.6453   14.5449   24.4945 C   0  0  0  0  0  0  0  0  0  0  0  0
  2  1  1  1
  2  3  1  0
  3  4  1  0
  4  5  1  6
  5  6  1  0
  5  7  2  0
  4  8  1  0
  8  9  1  0
  9 10  1  0
 10 11  2  0
 12 10  1  1
 12 13  1  0
 13 14  1  0
 14 15  1  0
 15 16  2  0
 16 17  1  0
 17 18  2  0
 18 19  1  0
 19 20  2  0
  9 21  1  0
 21  2  1  0
 20 12  1  0
 20 15  1  0
M  END
>  <alias>  (183) 
None

>  <Experiment code>  (183) 
nan

>  <CrystalformSites upload name>  (183) 
nan

>  <inchikey>  (183) 
SSKNNSPYZGBIMN-MDZLAQPJSA-N

>  <Crystalforms upload name>  (183) 
nan

>  <Quatassemblies upload name>  (183) 
nan

>  <ConformerSites alias>  (183) 
nan

>  <ConformerSites short tag>  (183) 
nan

>  <Crystalforms short tag>  (183) 
nan

>  <Centroid res>  (183) 
nan

>  <Quatassemblies short tag>  (183) 
nan

>  <observation_longname>  (183) 
nan

>  <name>  (183) 
SSKNNSPYZGBIMN-MDZLAQPJSA-N

>  <CanonSites upload name>  (183) 
nan

>  <tags>  (183) 
['iter2']

>  <energy_score>  (183) 
2.351737

>  <original SMILES>  (183) 
C[C@@H]1C[C@H](C(N)=O)CN(C(=O)[C@H]2CSc3ccccc32)C1

>  <ref_mols>  (183) 
A4386a

>  <Pose>  (183) 
nan

>  <distance_score>  (183) 
1.852197

>  <ConformerSites upload name>  (183) 
nan

>  <HIPPO Pose ID>  (183) 
293150

>  <Crystalforms alias>  (183) 
nan

>  <original ID>  (183) 
SSKNNSPYZGBIMN-MDZLAQPJSA-N

>  <CanonSites alias>  (183) 
nan

>  <CrystalformSites alias>  (183) 
nan

>  <ref_pdb>  (183) 
A4386a

>  <CanonSites short tag>  (183) 
nan

>  <Quatassemblies alias>  (183) 
nan

>  <HIPPO Compound ID>  (183) 
122847

>  <CrystalformSites short tag>  (183) 
nan

$$$$
SSKNNSPYZGBIMN-GMXVVIOVSA-N
     RDKit          3D

 21 23  0  0  0  0  0  0  0  0999 V2000
   11.3930   14.6253   24.6319 C   0  0  0  0  0  0  0  0  0  0  0  0
   10.5460   15.7506   24.0242 C   0  0  1  0  0  0  0  0  0  0  0  0
   11.0792   16.1932   22.6681 C   0  0  0  0  0  0  0  0  0  0  0  0
   10.5927   15.2117   21.6183 C   0  0  2  0  0  0  0  0  0  0  0  0
   10.6775   15.7715   20.1962 C   0  0  0  0  0  0  0  0  0  0  0  0
   10.7903   14.7037   19.2429 N   0  0  0  0  0  0  0  0  0  0  0  0
   10.6509   16.9542   20.0389 O   0  0  0  0  0  0  0  0  0  0  0  0
    9.1322   14.8852   21.9148 C   0  0  0  0  0  0  0  0  0  0  0  0
    8.9170   13.9898   23.0988 N   0  0  0  0  0  0  0  0  0  0  0  0
    7.7516   13.3051   23.5456 C   0  0  0  0  0  0  0  0  0  0  0  0
    6.6241   13.3412   23.1404 O   0  0  0  0  0  0  0  0  0  0  0  0
    8.1803   12.3672   24.6835 C   0  0  2  0  0  0  0  0  0  0  0  0
    8.8236   11.1122   24.0737 C   0  0  0  0  0  0  0  0  0  0  0  0
    8.0458    9.6423   24.7860 S   0  0  0  0  0  0  0  0  0  0  0  0
    6.8877   10.5766   25.7247 C   0  0  0  0  0  0  0  0  0  0  0  0
    5.8959   10.0549   26.5417 C   0  0  0  0  0  0  0  0  0  0  0  0
    5.0837   10.9244   27.2681 C   0  0  0  0  0  0  0  0  0  0  0  0
    5.2603   12.3057   27.1579 C   0  0  0  0  0  0  0  0  0  0  0  0
    6.2511   12.8244   26.3231 C   0  0  0  0  0  0  0  0  0  0  0  0
    7.0631   11.9503   25.6018 C   0  0  0  0  0  0  0  0  0  0  0  0
    9.0716   15.3138   23.8504 C   0  0  0  0  0  0  0  0  0  0  0  0
  2  1  1  6
  2  3  1  0
  3  4  1  0
  4  5  1  6
  5  6  1  0
  5  7  2  0
  4  8  1  0
  8  9  1  0
  9 10  1  0
 10 11  2  0
 12 10  1  6
 12 13  1  0
 13 14  1  0
 14 15  1  0
 15 16  2  0
 16 17  1  0
 17 18  2  0
 18 19  1  0
 19 20  2  0
  9 21  1  0
 21  2  1  0
 20 12  1  0
 20 15  1  0
M  END
>  <alias>  (184) 
None

>  <Experiment code>  (184) 
nan

>  <CrystalformSites upload name>  (184) 
nan

>  <inchikey>  (184) 
SSKNNSPYZGBIMN-GMXVVIOVSA-N

>  <Crystalforms upload name>  (184) 
nan

>  <Quatassemblies upload name>  (184) 
nan

>  <ConformerSites alias>  (184) 
nan

>  <ConformerSites short tag>  (184) 
nan

>  <Crystalforms short tag>  (184) 
nan

>  <Centroid res>  (184) 
nan

>  <Quatassemblies short tag>  (184) 
nan

>  <observation_longname>  (184) 
nan

>  <name>  (184) 
SSKNNSPYZGBIMN-GMXVVIOVSA-N

>  <CanonSites upload name>  (184) 
nan

>  <tags>  (184) 
['iter2']

>  <energy_score>  (184) 
119.432526

>  <original SMILES>  (184) 
C[C@H]1C[C@H](C(N)=O)CN(C(=O)[C@@H]2CSc3ccccc32)C1

>  <ref_mols>  (184) 
A4386a

>  <Pose>  (184) 
nan

>  <distance_score>  (184) 
1.168928

>  <ConformerSites upload name>  (184) 
nan

>  <HIPPO Pose ID>  (184) 
293151

>  <Crystalforms alias>  (184) 
nan

>  <original ID>  (184) 
SSKNNSPYZGBIMN-GMXVVIOVSA-N

>  <CanonSites alias>  (184) 
nan

>  <CrystalformSites alias>  (184) 
nan

>  <ref_pdb>  (184) 
A4386a

>  <CanonSites short tag>  (184) 
nan

>  <Quatassemblies alias>  (184) 
nan

>  <HIPPO Compound ID>  (184) 
122847

>  <CrystalformSites short tag>  (184) 
nan

$$$$
SSKNNSPYZGBIMN-WZRBSPASSA-N
     RDKit          3D

 21 23  0  0  0  0  0  0  0  0999 V2000
   11.8099   14.5427   24.6595 C   0  0  0  0  0  0  0  0  0  0  0  0
   10.8845   14.6447   23.4577 C   0  0  2  0  0  0  0  0  0  0  0  0
   11.3867   15.5445   22.3472 C   0  0  0  0  0  0  0  0  0  0  0  0
   10.2109   16.1830   21.6109 C   0  0  1  0  0  0  0  0  0  0  0  0
   10.2229   16.0787   20.0628 C   0  0  0  0  0  0  0  0  0  0  0  0
   10.4558   14.7549   19.5569 N   0  0  0  0  0  0  0  0  0  0  0  0
   10.0786   17.1187   19.4869 O   0  0  0  0  0  0  0  0  0  0  0  0
    8.8131   15.9594   22.2468 C   0  0  0  0  0  0  0  0  0  0  0  0
    8.4404   14.6983   23.0126 N   0  0  0  0  0  0  0  0  0  0  0  0
    7.2740   14.3815   23.7778 C   0  0  0  0  0  0  0  0  0  0  0  0
    6.3332   15.0635   24.0845 O   0  0  0  0  0  0  0  0  0  0  0  0
    7.2726   12.8809   24.1341 C   0  0  1  0  0  0  0  0  0  0  0  0
    8.5832   12.0851   24.0895 C   0  0  0  0  0  0  0  0  0  0  0  0
    8.1637   10.4139   24.6721 S   0  0  0  0  0  0  0  0  0  0  0  0
    6.8518   11.0550   25.6711 C   0  0  0  0  0  0  0  0  0  0  0  0
    6.1239   10.3379   26.6068 C   0  0  0  0  0  0  0  0  0  0  0  0
    5.1698   11.0039   27.3707 C   0  0  0  0  0  0  0  0  0  0  0  0
    4.9369   12.3666   27.1650 C   0  0  0  0  0  0  0  0  0  0  0  0
    5.6276   13.0673   26.1700 C   0  0  0  0  0  0  0  0  0  0  0  0
    6.5858   12.4079   25.4072 C   0  0  0  0  0  0  0  0  0  0  0  0
    9.5316   15.1818   23.9181 C   0  0  0  0  0  0  0  0  0  0  0  0
  2  1  1  1
  2  3  1  0
  3  4  1  0
  4  5  1  6
  5  6  1  0
  5  7  2  0
  4  8  1  0
  8  9  1  0
  9 10  1  0
 10 11  2  0
 12 10  1  1
 12 13  1  0
 13 14  1  0
 14 15  1  0
 15 16  2  0
 16 17  1  0
 17 18  2  0
 18 19  1  0
 19 20  2  0
  9 21  1  0
 21  2  1  0
 20 12  1  0
 20 15  1  0
M  END
>  <alias>  (185) 
None

>  <Experiment code>  (185) 
nan

>  <CrystalformSites upload name>  (185) 
nan

>  <inchikey>  (185) 
SSKNNSPYZGBIMN-WZRBSPASSA-N

>  <Crystalforms upload name>  (185) 
nan

>  <Quatassemblies upload name>  (185) 
nan

>  <ConformerSites alias>  (185) 
nan

>  <ConformerSites short tag>  (185) 
nan

>  <Crystalforms short tag>  (185) 
nan

>  <Centroid res>  (185) 
nan

>  <Quatassemblies short tag>  (185) 
nan

>  <observation_longname>  (185) 
nan

>  <name>  (185) 
SSKNNSPYZGBIMN-WZRBSPASSA-N

>  <CanonSites upload name>  (185) 
nan

>  <tags>  (185) 
['iter2']

>  <energy_score>  (185) 
91.774112

>  <original SMILES>  (185) 
C[C@@H]1C[C@@H](C(N)=O)CN(C(=O)[C@H]2CSc3ccccc32)C1

>  <ref_mols>  (185) 
A4386a

>  <Pose>  (185) 
nan

>  <distance_score>  (185) 
1.416355

>  <ConformerSites upload name>  (185) 
nan

>  <HIPPO Pose ID>  (185) 
293152

>  <Crystalforms alias>  (185) 
nan

>  <original ID>  (185) 
SSKNNSPYZGBIMN-WZRBSPASSA-N

>  <CanonSites alias>  (185) 
nan

>  <CrystalformSites alias>  (185) 
nan

>  <ref_pdb>  (185) 
A4386a

>  <CanonSites short tag>  (185) 
nan

>  <Quatassemblies alias>  (185) 
nan

>  <HIPPO Compound ID>  (185) 
122847

>  <CrystalformSites short tag>  (185) 
nan

$$$$
SSKNNSPYZGBIMN-DMDPSCGWSA-N
     RDKit          3D

 21 23  0  0  0  0  0  0  0  0999 V2000
   11.3804   14.9402   24.4697 C   0  0  0  0  0  0  0  0  0  0  0  0
   10.6531   15.8853   23.5131 C   0  0  1  0  0  0  0  0  0  0  0  0
   11.2427   15.7616   22.1055 C   0  0  0  0  0  0  0  0  0  0  0  0
   10.1196   16.0369   21.1251 C   0  0  1  0  0  0  0  0  0  0  0  0
   10.5065   15.9069   19.6343 C   0  0  0  0  0  0  0  0  0  0  0  0
   10.9689   14.5963   19.2647 N   0  0  0  0  0  0  0  0  0  0  0  0
   10.4484   16.9205   18.9995 O   0  0  0  0  0  0  0  0  0  0  0  0
    8.8558   15.2648   21.5336 C   0  0  0  0  0  0  0  0  0  0  0  0
    8.8567   14.3201   22.7207 N   0  0  0  0  0  0  0  0  0  0  0  0
    7.7839   13.6024   23.3442 C   0  0  0  0  0  0  0  0  0  0  0  0
    6.6017   13.6373   23.1408 O   0  0  0  0  0  0  0  0  0  0  0  0
    8.3651   12.7218   24.4706 C   0  0  2  0  0  0  0  0  0  0  0  0
    9.2357   11.5957   23.8971 C   0  0  0  0  0  0  0  0  0  0  0  0
    8.5062    9.9899   24.3160 S   0  0  0  0  0  0  0  0  0  0  0  0
    7.2918   10.7117   25.3646 C   0  0  0  0  0  0  0  0  0  0  0  0
    6.3647   10.0180   26.1261 C   0  0  0  0  0  0  0  0  0  0  0  0
    5.4820   10.7245   26.9418 C   0  0  0  0  0  0  0  0  0  0  0  0
    5.5266   12.1202   26.9761 C   0  0  0  0  0  0  0  0  0  0  0  0
    6.4508   12.8145   26.1928 C   0  0  0  0  0  0  0  0  0  0  0  0
    7.3330   12.1016   25.3808 C   0  0  0  0  0  0  0  0  0  0  0  0
    9.1281   15.6130   23.4708 C   0  0  0  0  0  0  0  0  0  0  0  0
  2  1  1  1
  2  3  1  0
  3  4  1  0
  4  5  1  6
  5  6  1  0
  5  7  2  0
  4  8  1  0
  8  9  1  0
  9 10  1  0
 10 11  2  0
 12 10  1  6
 12 13  1  0
 13 14  1  0
 14 15  1  0
 15 16  2  0
 16 17  1  0
 17 18  2  0
 18 19  1  0
 19 20  2  0
  9 21  1  0
 21  2  1  0
 20 12  1  0
 20 15  1  0
M  END
>  <alias>  (186) 
None

>  <Experiment code>  (186) 
nan

>  <CrystalformSites upload name>  (186) 
nan

>  <inchikey>  (186) 
SSKNNSPYZGBIMN-DMDPSCGWSA-N

>  <Crystalforms upload name>  (186) 
nan

>  <Quatassemblies upload name>  (186) 
nan

>  <ConformerSites alias>  (186) 
nan

>  <ConformerSites short tag>  (186) 
nan

>  <Crystalforms short tag>  (186) 
nan

>  <Centroid res>  (186) 
nan

>  <Quatassemblies short tag>  (186) 
nan

>  <observation_longname>  (186) 
nan

>  <name>  (186) 
SSKNNSPYZGBIMN-DMDPSCGWSA-N

>  <CanonSites upload name>  (186) 
nan

>  <tags>  (186) 
['iter2']

>  <energy_score>  (186) 
135.211143

>  <original SMILES>  (186) 
C[C@H]1C[C@@H](C(N)=O)CN(C(=O)[C@@H]2CSc3ccccc32)C1

>  <ref_mols>  (186) 
A4386a

>  <Pose>  (186) 
nan

>  <distance_score>  (186) 
1.005995

>  <ConformerSites upload name>  (186) 
nan

>  <HIPPO Pose ID>  (186) 
293153

>  <Crystalforms alias>  (186) 
nan

>  <original ID>  (186) 
SSKNNSPYZGBIMN-DMDPSCGWSA-N

>  <CanonSites alias>  (186) 
nan

>  <CrystalformSites alias>  (186) 
nan

>  <ref_pdb>  (186) 
A4386a

>  <CanonSites short tag>  (186) 
nan

>  <Quatassemblies alias>  (186) 
nan

>  <HIPPO Compound ID>  (186) 
122847

>  <CrystalformSites short tag>  (186) 
nan

$$$$
VDKTYYWXMPDQNX-DGCLKSJQSA-N
     RDKit          3D

 21 23  0  0  0  0  0  0  0  0999 V2000
   10.9157   15.2626   18.8522 C   0  0  0  0  0  0  0  0  0  0  0  0
   10.5269   15.4290   20.2111 N   0  0  0  0  0  0  0  0  0  0  0  0
   10.0014   16.5528   20.8978 C   0  0  0  0  0  0  0  0  0  0  0  0
    9.6743   17.6291   20.4971 O   0  0  0  0  0  0  0  0  0  0  0  0
    9.8820   16.3184   22.3976 C   0  0  2  0  0  0  0  0  0  0  0  0
   10.9945   15.5653   23.1015 C   0  0  0  0  0  0  0  0  0  0  0  0
   10.6130   15.5676   24.5717 C   0  0  0  0  0  0  0  0  0  0  0  0
    9.0793   15.6128   24.6996 C   0  0  0  0  0  0  0  0  0  0  0  0
    8.4192   14.5973   23.7866 N   0  0  0  0  0  0  0  0  0  0  0  0
    7.2890   14.0144   24.4383 C   0  0  0  0  0  0  0  0  0  0  0  0
    6.1351   14.3433   24.4403 O   0  0  0  0  0  0  0  0  0  0  0  0
    7.7876   12.7773   25.2068 C   0  0  2  0  0  0  0  0  0  0  0  0
    8.3551   11.7508   24.2112 C   0  0  0  0  0  0  0  0  0  0  0  0
    7.9790   10.0906   24.8299 S   0  0  0  0  0  0  0  0  0  0  0  0
    6.7208   10.6968   25.9037 C   0  0  0  0  0  0  0  0  0  0  0  0
    5.8118    9.9265   26.6091 C   0  0  0  0  0  0  0  0  0  0  0  0
    4.9316   10.5430   27.4965 C   0  0  0  0  0  0  0  0  0  0  0  0
    4.9586   11.9290   27.6576 C   0  0  0  0  0  0  0  0  0  0  0  0
    5.8629   12.7027   26.9293 C   0  0  0  0  0  0  0  0  0  0  0  0
    6.7356   12.0817   26.0358 C   0  0  0  0  0  0  0  0  0  0  0  0
    8.5091   15.7523   22.7954 C   0  0  0  0  0  0  0  0  0  0  0  0
  1  2  1  0
  2  3  1  0
  3  4  2  0
  5  3  1  6
  5  6  1  0
  6  7  1  0
  7  8  1  0
  8  9  1  0
  9 10  1  0
 10 11  2  0
 12 10  1  6
 12 13  1  0
 13 14  1  0
 14 15  1  0
 15 16  2  0
 16 17  1  0
 17 18  2  0
 18 19  1  0
 19 20  2  0
  9 21  1  0
 21  5  1  0
 20 12  1  0
 20 15  1  0
M  END
>  <alias>  (187) 
None

>  <Experiment code>  (187) 
nan

>  <CrystalformSites upload name>  (187) 
nan

>  <inchikey>  (187) 
VDKTYYWXMPDQNX-DGCLKSJQSA-N

>  <Crystalforms upload name>  (187) 
nan

>  <Quatassemblies upload name>  (187) 
nan

>  <ConformerSites alias>  (187) 
nan

>  <ConformerSites short tag>  (187) 
nan

>  <Crystalforms short tag>  (187) 
nan

>  <Centroid res>  (187) 
nan

>  <Quatassemblies short tag>  (187) 
nan

>  <observation_longname>  (187) 
nan

>  <name>  (187) 
VDKTYYWXMPDQNX-DGCLKSJQSA-N

>  <CanonSites upload name>  (187) 
nan

>  <tags>  (187) 
['iter2']

>  <energy_score>  (187) 
24.556339

>  <original SMILES>  (187) 
CNC(=O)[C@@H]1CCCN(C(=O)[C@@H]2CSc3ccccc32)C1

>  <ref_mols>  (187) 
A4386a

>  <Pose>  (187) 
nan

>  <distance_score>  (187) 
1.557953

>  <ConformerSites upload name>  (187) 
nan

>  <HIPPO Pose ID>  (187) 
293154

>  <Crystalforms alias>  (187) 
nan

>  <original ID>  (187) 
VDKTYYWXMPDQNX-DGCLKSJQSA-N

>  <CanonSites alias>  (187) 
nan

>  <CrystalformSites alias>  (187) 
nan

>  <ref_pdb>  (187) 
A4386a

>  <CanonSites short tag>  (187) 
nan

>  <Quatassemblies alias>  (187) 
nan

>  <HIPPO Compound ID>  (187) 
122856

>  <CrystalformSites short tag>  (187) 
nan

$$$$
VDKTYYWXMPDQNX-WCQYABFASA-N
     RDKit          3D

 21 23  0  0  0  0  0  0  0  0999 V2000
   11.0679   15.5669   18.7978 C   0  0  0  0  0  0  0  0  0  0  0  0
   10.6911   15.2844   20.1368 N   0  0  0  0  0  0  0  0  0  0  0  0
    9.8809   16.0153   21.0544 C   0  0  0  0  0  0  0  0  0  0  0  0
    9.3738   17.0914   20.9612 O   0  0  0  0  0  0  0  0  0  0  0  0
    9.7924   15.2503   22.3607 C   0  0  1  0  0  0  0  0  0  0  0  0
   10.8654   15.7599   23.3056 C   0  0  0  0  0  0  0  0  0  0  0  0
   10.5156   15.2978   24.7017 C   0  0  0  0  0  0  0  0  0  0  0  0
    8.9993   15.3934   24.9218 C   0  0  0  0  0  0  0  0  0  0  0  0
    8.1938   14.3967   24.0905 N   0  0  0  0  0  0  0  0  0  0  0  0
    7.0015   14.0227   24.7896 C   0  0  0  0  0  0  0  0  0  0  0  0
    5.9018   14.5005   24.7659 O   0  0  0  0  0  0  0  0  0  0  0  0
    7.3519   12.7435   25.5642 C   0  0  2  0  0  0  0  0  0  0  0  0
    7.8959   11.6798   24.5898 C   0  0  0  0  0  0  0  0  0  0  0  0
    7.5074   10.0464   25.2614 S   0  0  0  0  0  0  0  0  0  0  0  0
    6.2415   10.7016   26.3007 C   0  0  0  0  0  0  0  0  0  0  0  0
    5.3470    9.9555   27.0514 C   0  0  0  0  0  0  0  0  0  0  0  0
    4.4447   10.6155   27.8832 C   0  0  0  0  0  0  0  0  0  0  0  0
    4.4407   12.0111   27.9478 C   0  0  0  0  0  0  0  0  0  0  0  0
    5.3456   12.7562   27.1902 C   0  0  0  0  0  0  0  0  0  0  0  0
    6.2446   12.0965   26.3563 C   0  0  0  0  0  0  0  0  0  0  0  0
    8.4228   15.4348   23.0196 C   0  0  0  0  0  0  0  0  0  0  0  0
  1  2  1  0
  2  3  1  0
  3  4  2  0
  5  3  1  6
  5  6  1  0
  6  7  1  0
  7  8  1  0
  8  9  1  0
  9 10  1  0
 10 11  2  0
 12 10  1  6
 12 13  1  0
 13 14  1  0
 14 15  1  0
 15 16  2  0
 16 17  1  0
 17 18  2  0
 18 19  1  0
 19 20  2  0
  9 21  1  0
 21  5  1  0
 20 12  1  0
 20 15  1  0
M  END
>  <alias>  (188) 
None

>  <Experiment code>  (188) 
nan

>  <CrystalformSites upload name>  (188) 
nan

>  <inchikey>  (188) 
VDKTYYWXMPDQNX-WCQYABFASA-N

>  <Crystalforms upload name>  (188) 
nan

>  <Quatassemblies upload name>  (188) 
nan

>  <ConformerSites alias>  (188) 
nan

>  <ConformerSites short tag>  (188) 
nan

>  <Crystalforms short tag>  (188) 
nan

>  <Centroid res>  (188) 
nan

>  <Quatassemblies short tag>  (188) 
nan

>  <observation_longname>  (188) 
nan

>  <name>  (188) 
VDKTYYWXMPDQNX-WCQYABFASA-N

>  <CanonSites upload name>  (188) 
nan

>  <tags>  (188) 
['iter2']

>  <energy_score>  (188) 
43.678517

>  <original SMILES>  (188) 
CNC(=O)[C@H]1CCCN(C(=O)[C@@H]2CSc3ccccc32)C1

>  <ref_mols>  (188) 
A4386a

>  <Pose>  (188) 
nan

>  <distance_score>  (188) 
1.883645

>  <ConformerSites upload name>  (188) 
nan

>  <HIPPO Pose ID>  (188) 
293155

>  <Crystalforms alias>  (188) 
nan

>  <original ID>  (188) 
VDKTYYWXMPDQNX-WCQYABFASA-N

>  <CanonSites alias>  (188) 
nan

>  <CrystalformSites alias>  (188) 
nan

>  <ref_pdb>  (188) 
A4386a

>  <CanonSites short tag>  (188) 
nan

>  <Quatassemblies alias>  (188) 
nan

>  <HIPPO Compound ID>  (188) 
122856

>  <CrystalformSites short tag>  (188) 
nan

$$$$
DTHIPRCIVYUWKC-ABAIWWIYSA-N
     RDKit          3D

 21 23  0  0  0  0  0  0  0  0999 V2000
    9.2216   18.3050   20.6639 N   0  0  0  0  0  0  0  0  0  0  0  0
    9.6092   16.8999   20.6105 C   0  0  0  0  0  0  0  0  0  0  0  0
    9.4545   16.0796   19.7486 O   0  0  0  0  0  0  0  0  0  0  0  0
   10.2268   16.4374   21.9583 C   0  0  2  0  0  0  0  0  0  0  0  0
   11.0984   17.4635   22.4464 O   0  0  0  0  0  0  0  0  0  0  0  0
   11.0866   15.1969   21.8242 C   0  0  0  0  0  0  0  0  0  0  0  0
   11.4635   14.7848   23.2369 C   0  0  0  0  0  0  0  0  0  0  0  0
   10.3538   15.1914   24.2164 C   0  0  0  0  0  0  0  0  0  0  0  0
    8.9781   14.7911   23.7260 N   0  0  0  0  0  0  0  0  0  0  0  0
    8.1555   14.4060   24.8306 C   0  0  0  0  0  0  0  0  0  0  0  0
    7.4123   15.0579   25.5142 O   0  0  0  0  0  0  0  0  0  0  0  0
    8.3927   12.9081   25.1445 C   0  0  2  0  0  0  0  0  0  0  0  0
    8.6969   12.0730   23.8881 C   0  0  0  0  0  0  0  0  0  0  0  0
    8.4448   10.3405   24.3464 S   0  0  0  0  0  0  0  0  0  0  0  0
    7.2174   10.8035   25.5246 C   0  0  0  0  0  0  0  0  0  0  0  0
    6.3026    9.9461   26.1128 C   0  0  0  0  0  0  0  0  0  0  0  0
    5.4073   10.4470   27.0534 C   0  0  0  0  0  0  0  0  0  0  0  0
    5.4419   11.8003   27.3937 C   0  0  0  0  0  0  0  0  0  0  0  0
    6.3732   12.6585   26.7991 C   0  0  0  0  0  0  0  0  0  0  0  0
    7.2594   12.1653   25.8424 C   0  0  0  0  0  0  0  0  0  0  0  0
    9.0931   16.1218   22.9868 C   0  0  0  0  0  0  0  0  0  0  0  0
  1  2  1  0
  2  3  2  0
  2  4  1  0
  4  5  1  1
  4  6  1  0
  6  7  1  0
  7  8  1  0
  8  9  1  0
  9 10  1  0
 10 11  2  0
 12 10  1  6
 12 13  1  0
 13 14  1  0
 14 15  1  0
 15 16  2  0
 16 17  1  0
 17 18  2  0
 18 19  1  0
 19 20  2  0
  9 21  1  0
 21  4  1  0
 20 12  1  0
 20 15  1  0
M  END
>  <alias>  (189) 
None

>  <Experiment code>  (189) 
nan

>  <CrystalformSites upload name>  (189) 
nan

>  <inchikey>  (189) 
DTHIPRCIVYUWKC-ABAIWWIYSA-N

>  <Crystalforms upload name>  (189) 
nan

>  <Quatassemblies upload name>  (189) 
nan

>  <ConformerSites alias>  (189) 
nan

>  <ConformerSites short tag>  (189) 
nan

>  <Crystalforms short tag>  (189) 
nan

>  <Centroid res>  (189) 
nan

>  <Quatassemblies short tag>  (189) 
nan

>  <observation_longname>  (189) 
nan

>  <name>  (189) 
DTHIPRCIVYUWKC-ABAIWWIYSA-N

>  <CanonSites upload name>  (189) 
nan

>  <tags>  (189) 
['iter2']

>  <energy_score>  (189) 
141.574955

>  <original SMILES>  (189) 
NC(=O)[C@]1(O)CCCN(C(=O)[C@@H]2CSc3ccccc32)C1

>  <ref_mols>  (189) 
A4386a

>  <Pose>  (189) 
nan

>  <distance_score>  (189) 
1.5013

>  <ConformerSites upload name>  (189) 
nan

>  <HIPPO Pose ID>  (189) 
293160

>  <Crystalforms alias>  (189) 
nan

>  <original ID>  (189) 
DTHIPRCIVYUWKC-ABAIWWIYSA-N

>  <CanonSites alias>  (189) 
nan

>  <CrystalformSites alias>  (189) 
nan

>  <ref_pdb>  (189) 
A4386a

>  <CanonSites short tag>  (189) 
nan

>  <Quatassemblies alias>  (189) 
nan

>  <HIPPO Compound ID>  (189) 
122859

>  <CrystalformSites short tag>  (189) 
nan

$$$$
DTHIPRCIVYUWKC-IAQYHMDHSA-N
     RDKit          3D

 21 23  0  0  0  0  0  0  0  0999 V2000
   12.0171   15.5334   19.3737 N   0  0  0  0  0  0  0  0  0  0  0  0
   10.6861   15.8041   19.8624 C   0  0  0  0  0  0  0  0  0  0  0  0
    9.7440   16.3065   19.3215 O   0  0  0  0  0  0  0  0  0  0  0  0
   10.5954   15.3127   21.3250 C   0  0  1  0  0  0  0  0  0  0  0  0
   11.5221   14.2155   21.4801 O   0  0  0  0  0  0  0  0  0  0  0  0
   10.9952   16.4027   22.2963 C   0  0  0  0  0  0  0  0  0  0  0  0
   10.4826   15.9933   23.6680 C   0  0  0  0  0  0  0  0  0  0  0  0
    9.0539   15.4265   23.5595 C   0  0  0  0  0  0  0  0  0  0  0  0
    8.9896   14.0519   22.8988 N   0  0  0  0  0  0  0  0  0  0  0  0
    7.8624   13.3248   23.3830 C   0  0  0  0  0  0  0  0  0  0  0  0
    6.7379   13.2633   22.9683 O   0  0  0  0  0  0  0  0  0  0  0  0
    8.3332   12.4610   24.5610 C   0  0  2  0  0  0  0  0  0  0  0  0
    9.0257   11.2080   23.9984 C   0  0  0  0  0  0  0  0  0  0  0  0
    8.2042    9.7256   24.6375 S   0  0  0  0  0  0  0  0  0  0  0  0
    7.0560   10.6501   25.5971 C   0  0  0  0  0  0  0  0  0  0  0  0
    6.0640   10.1145   26.4052 C   0  0  0  0  0  0  0  0  0  0  0  0
    5.2505   10.9730   27.1430 C   0  0  0  0  0  0  0  0  0  0  0  0
    5.4274   12.3563   27.0531 C   0  0  0  0  0  0  0  0  0  0  0  0
    6.4179   12.8889   26.2256 C   0  0  0  0  0  0  0  0  0  0  0  0
    7.2322   12.0265   25.4932 C   0  0  0  0  0  0  0  0  0  0  0  0
    9.1616   14.8825   21.6551 C   0  0  0  0  0  0  0  0  0  0  0  0
  1  2  1  0
  2  3  2  0
  2  4  1  0
  4  5  1  6
  4  6  1  0
  6  7  1  0
  7  8  1  0
  8  9  1  0
  9 10  1  0
 10 11  2  0
 12 10  1  6
 12 13  1  0
 13 14  1  0
 14 15  1  0
 15 16  2  0
 16 17  1  0
 17 18  2  0
 18 19  1  0
 19 20  2  0
  9 21  1  0
 21  4  1  0
 20 12  1  0
 20 15  1  0
M  END
>  <alias>  (190) 
None

>  <Experiment code>  (190) 
nan

>  <CrystalformSites upload name>  (190) 
nan

>  <inchikey>  (190) 
DTHIPRCIVYUWKC-IAQYHMDHSA-N

>  <Crystalforms upload name>  (190) 
nan

>  <Quatassemblies upload name>  (190) 
nan

>  <ConformerSites alias>  (190) 
nan

>  <ConformerSites short tag>  (190) 
nan

>  <Crystalforms short tag>  (190) 
nan

>  <Centroid res>  (190) 
nan

>  <Quatassemblies short tag>  (190) 
nan

>  <observation_longname>  (190) 
nan

>  <name>  (190) 
DTHIPRCIVYUWKC-IAQYHMDHSA-N

>  <CanonSites upload name>  (190) 
nan

>  <tags>  (190) 
['iter2']

>  <energy_score>  (190) 
-156.458617

>  <original SMILES>  (190) 
NC(=O)[C@@]1(O)CCCN(C(=O)[C@@H]2CSc3ccccc32)C1

>  <ref_mols>  (190) 
A4386a

>  <Pose>  (190) 
nan

>  <distance_score>  (190) 
1.137463

>  <ConformerSites upload name>  (190) 
nan

>  <HIPPO Pose ID>  (190) 
293161

>  <Crystalforms alias>  (190) 
nan

>  <original ID>  (190) 
DTHIPRCIVYUWKC-IAQYHMDHSA-N

>  <CanonSites alias>  (190) 
nan

>  <CrystalformSites alias>  (190) 
nan

>  <ref_pdb>  (190) 
A4386a

>  <CanonSites short tag>  (190) 
nan

>  <Quatassemblies alias>  (190) 
nan

>  <HIPPO Compound ID>  (190) 
122859

>  <CrystalformSites short tag>  (190) 
nan

$$$$
DTHIPRCIVYUWKC-ABAIWWIYSA-N
     RDKit          3D

 21 23  0  0  0  0  0  0  0  0999 V2000
    9.7113   16.2383   19.7387 N   0  0  0  0  0  0  0  0  0  0  0  0
    9.1535   15.6660   20.9491 C   0  0  0  0  0  0  0  0  0  0  0  0
    8.2055   14.9469   21.1099 O   0  0  0  0  0  0  0  0  0  0  0  0
   10.0731   16.0394   22.1359 C   0  0  2  0  0  0  0  0  0  0  0  0
   10.7033   17.3036   21.8638 O   0  0  0  0  0  0  0  0  0  0  0  0
   11.1706   14.9868   22.2155 C   0  0  0  0  0  0  0  0  0  0  0  0
   11.6137   14.8226   23.6536 C   0  0  0  0  0  0  0  0  0  0  0  0
   10.4622   15.0198   24.6461 C   0  0  0  0  0  0  0  0  0  0  0  0
    9.0682   14.7360   24.1146 N   0  0  0  0  0  0  0  0  0  0  0  0
    8.2050   14.3512   25.1806 C   0  0  0  0  0  0  0  0  0  0  0  0
    7.4939   15.0139   25.8862 O   0  0  0  0  0  0  0  0  0  0  0  0
    8.3176   12.8226   25.3573 C   0  0  2  0  0  0  0  0  0  0  0  0
    8.5486   12.0584   24.0395 C   0  0  0  0  0  0  0  0  0  0  0  0
    8.2608   10.3130   24.4378 S   0  0  0  0  0  0  0  0  0  0  0  0
    7.0604   10.7619   25.6516 C   0  0  0  0  0  0  0  0  0  0  0  0
    6.1218    9.9146   26.2157 C   0  0  0  0  0  0  0  0  0  0  0  0
    5.2576   10.4082   27.1889 C   0  0  0  0  0  0  0  0  0  0  0  0
    5.3402   11.7454   27.5802 C   0  0  0  0  0  0  0  0  0  0  0  0
    6.2936   12.5941   27.0089 C   0  0  0  0  0  0  0  0  0  0  0  0
    7.1552   12.1062   26.0278 C   0  0  0  0  0  0  0  0  0  0  0  0
    9.2822   16.0728   23.4574 C   0  0  0  0  0  0  0  0  0  0  0  0
  1  2  1  0
  2  3  2  0
  2  4  1  0
  4  5  1  6
  4  6  1  0
  6  7  1  0
  7  8  1  0
  8  9  1  0
  9 10  1  0
 10 11  2  0
 12 10  1  6
 12 13  1  0
 13 14  1  0
 14 15  1  0
 15 16  2  0
 16 17  1  0
 17 18  2  0
 18 19  1  0
 19 20  2  0
  9 21  1  0
 21  4  1  0
 20 12  1  0
 20 15  1  0
M  END
>  <alias>  (191) 
None

>  <Experiment code>  (191) 
nan

>  <CrystalformSites upload name>  (191) 
nan

>  <inchikey>  (191) 
DTHIPRCIVYUWKC-ABAIWWIYSA-N

>  <Crystalforms upload name>  (191) 
nan

>  <Quatassemblies upload name>  (191) 
nan

>  <ConformerSites alias>  (191) 
nan

>  <ConformerSites short tag>  (191) 
nan

>  <Crystalforms short tag>  (191) 
nan

>  <Centroid res>  (191) 
nan

>  <Quatassemblies short tag>  (191) 
nan

>  <observation_longname>  (191) 
nan

>  <name>  (191) 
DTHIPRCIVYUWKC-ABAIWWIYSA-N

>  <CanonSites upload name>  (191) 
nan

>  <tags>  (191) 
['iter2']

>  <energy_score>  (191) 
157.671534

>  <original SMILES>  (191) 
NC(=O)[C@]1(O)CCCN(C(=O)[C@@H]2CSc3ccccc32)C1

>  <ref_mols>  (191) 
A4386a

>  <Pose>  (191) 
nan

>  <distance_score>  (191) 
1.721465

>  <ConformerSites upload name>  (191) 
nan

>  <HIPPO Pose ID>  (191) 
293162

>  <Crystalforms alias>  (191) 
nan

>  <original ID>  (191) 
DTHIPRCIVYUWKC-ABAIWWIYSA-N

>  <CanonSites alias>  (191) 
nan

>  <CrystalformSites alias>  (191) 
nan

>  <ref_pdb>  (191) 
A4386a

>  <CanonSites short tag>  (191) 
nan

>  <Quatassemblies alias>  (191) 
nan

>  <HIPPO Compound ID>  (191) 
122859

>  <CrystalformSites short tag>  (191) 
nan

$$$$
DTHIPRCIVYUWKC-XHDPSFHLSA-N
     RDKit          3D

 21 23  0  0  0  0  0  0  0  0999 V2000
    9.9436   16.7244   18.9326 N   0  0  0  0  0  0  0  0  0  0  0  0
    9.7501   17.1383   20.3063 C   0  0  0  0  0  0  0  0  0  0  0  0
    9.5546   18.2228   20.7741 O   0  0  0  0  0  0  0  0  0  0  0  0
    9.9431   15.9235   21.2216 C   0  0  1  0  0  0  0  0  0  0  0  0
    9.8120   14.7729   20.3710 O   0  0  0  0  0  0  0  0  0  0  0  0
   11.3225   15.8990   21.8442 C   0  0  0  0  0  0  0  0  0  0  0  0
   11.2652   14.9030   22.9889 C   0  0  0  0  0  0  0  0  0  0  0  0
    9.9541   15.0624   23.7745 C   0  0  0  0  0  0  0  0  0  0  0  0
    8.6479   14.6728   23.0572 N   0  0  0  0  0  0  0  0  0  0  0  0
    7.6512   14.3117   24.0137 C   0  0  0  0  0  0  0  0  0  0  0  0
    6.8193   14.9815   24.5635 O   0  0  0  0  0  0  0  0  0  0  0  0
    7.6673   12.7894   24.2252 C   0  0  1  0  0  0  0  0  0  0  0  0
    8.9710   11.9996   24.0997 C   0  0  0  0  0  0  0  0  0  0  0  0
    8.4999   10.2720   24.4278 S   0  0  0  0  0  0  0  0  0  0  0  0
    7.1674   10.7921   25.4712 C   0  0  0  0  0  0  0  0  0  0  0  0
    6.3972    9.9690   26.2716 C   0  0  0  0  0  0  0  0  0  0  0  0
    5.4245   10.5309   27.0936 C   0  0  0  0  0  0  0  0  0  0  0  0
    5.2155   11.9109   27.0780 C   0  0  0  0  0  0  0  0  0  0  0  0
    5.9492   12.7304   26.2135 C   0  0  0  0  0  0  0  0  0  0  0  0
    6.9260   12.1687   25.3955 C   0  0  0  0  0  0  0  0  0  0  0  0
    8.9023   15.9744   22.3499 C   0  0  0  0  0  0  0  0  0  0  0  0
  1  2  1  0
  2  3  2  0
  2  4  1  0
  4  5  1  6
  4  6  1  0
  6  7  1  0
  7  8  1  0
  8  9  1  0
  9 10  1  0
 10 11  2  0
 12 10  1  1
 12 13  1  0
 13 14  1  0
 14 15  1  0
 15 16  2  0
 16 17  1  0
 17 18  2  0
 18 19  1  0
 19 20  2  0
  9 21  1  0
 21  4  1  0
 20 12  1  0
 20 15  1  0
M  END
>  <alias>  (192) 
None

>  <Experiment code>  (192) 
nan

>  <CrystalformSites upload name>  (192) 
nan

>  <inchikey>  (192) 
DTHIPRCIVYUWKC-XHDPSFHLSA-N

>  <Crystalforms upload name>  (192) 
nan

>  <Quatassemblies upload name>  (192) 
nan

>  <ConformerSites alias>  (192) 
nan

>  <ConformerSites short tag>  (192) 
nan

>  <Crystalforms short tag>  (192) 
nan

>  <Centroid res>  (192) 
nan

>  <Quatassemblies short tag>  (192) 
nan

>  <observation_longname>  (192) 
nan

>  <name>  (192) 
DTHIPRCIVYUWKC-XHDPSFHLSA-N

>  <CanonSites upload name>  (192) 
nan

>  <tags>  (192) 
['iter2']

>  <energy_score>  (192) 
131.642826

>  <original SMILES>  (192) 
NC(=O)[C@@]1(O)CCCN(C(=O)[C@H]2CSc3ccccc32)C1

>  <ref_mols>  (192) 
A4386a

>  <Pose>  (192) 
nan

>  <distance_score>  (192) 
1.35312

>  <ConformerSites upload name>  (192) 
nan

>  <HIPPO Pose ID>  (192) 
293163

>  <Crystalforms alias>  (192) 
nan

>  <original ID>  (192) 
DTHIPRCIVYUWKC-XHDPSFHLSA-N

>  <CanonSites alias>  (192) 
nan

>  <CrystalformSites alias>  (192) 
nan

>  <ref_pdb>  (192) 
A4386a

>  <CanonSites short tag>  (192) 
nan

>  <Quatassemblies alias>  (192) 
nan

>  <HIPPO Compound ID>  (192) 
122859

>  <CrystalformSites short tag>  (192) 
nan

$$$$
DIHBGMGXKWDIPC-QWHCGFSZSA-N
     RDKit          3D

 21 23  0  0  0  0  0  0  0  0999 V2000
    9.2493    9.1105   23.5664 C   0  0  0  0  0  0  0  0  0  0  0  0
    9.0668   10.8850   23.8982 S   0  0  0  0  0  0  0  0  0  0  0  0
    7.7159   11.0006   25.0769 C   0  0  0  0  0  0  0  0  0  0  0  0
    6.9919    9.8711   25.4805 C   0  0  0  0  0  0  0  0  0  0  0  0
    5.9065    9.9679   26.3555 C   0  0  0  0  0  0  0  0  0  0  0  0
    5.5194   11.2058   26.8437 C   0  0  0  0  0  0  0  0  0  0  0  0
    6.2378   12.3392   26.4802 C   0  0  0  0  0  0  0  0  0  0  0  0
    7.3525   12.2528   25.6220 C   0  0  0  0  0  0  0  0  0  0  0  0
    8.1529   13.5166   25.4098 C   0  0  0  0  0  0  0  0  0  0  0  0
    7.5634   14.5556   24.4586 C   0  0  0  0  0  0  0  0  0  0  0  0
    6.5548   15.1266   24.6597 O   0  0  0  0  0  0  0  0  0  0  0  0
    8.5830   14.7221   23.3414 N   0  0  0  0  0  0  0  0  0  0  0  0
    9.6513   15.7358   23.7191 C   0  0  0  0  0  0  0  0  0  0  0  0
   11.0420   15.4019   23.1408 C   0  0  0  0  0  0  0  0  0  0  0  0
   10.9787   15.8842   21.7276 C   0  0  1  0  0  0  0  0  0  0  0  0
   11.9822   15.4563   20.6923 C   0  0  0  0  0  0  0  0  0  0  0  0
   11.2685   15.6572   19.4638 N   0  0  0  0  0  0  0  0  0  0  0  0
    9.9248   15.8570   19.7374 C   0  0  0  0  0  0  0  0  0  0  0  0
    9.1644   16.3967   18.9699 O   0  0  0  0  0  0  0  0  0  0  0  0
    9.7086   15.3209   21.1284 C   0  0  2  0  0  0  0  0  0  0  0  0
    8.5548   15.6237   22.0643 C   0  0  0  0  0  0  0  0  0  0  0  0
  1  2  1  0
  2  3  1  0
  3  4  2  0
  4  5  1  0
  5  6  2  0
  6  7  1  0
  7  8  2  0
  8  9  1  0
  9 10  1  0
 10 11  2  0
 10 12  1  0
 12 13  1  0
 13 14  1  0
 15 14  1  1
 15 16  1  0
 16 17  1  0
 17 18  1  0
 18 19  2  0
 18 20  1  0
 20 21  1  1
  8  3  1  0
 21 12  1  0
 20 15  1  0
M  END
>  <alias>  (193) 
None

>  <Experiment code>  (193) 
nan

>  <CrystalformSites upload name>  (193) 
nan

>  <inchikey>  (193) 
DIHBGMGXKWDIPC-QWHCGFSZSA-N

>  <Crystalforms upload name>  (193) 
nan

>  <Quatassemblies upload name>  (193) 
nan

>  <ConformerSites alias>  (193) 
nan

>  <ConformerSites short tag>  (193) 
nan

>  <Crystalforms short tag>  (193) 
nan

>  <Centroid res>  (193) 
nan

>  <Quatassemblies short tag>  (193) 
nan

>  <observation_longname>  (193) 
nan

>  <name>  (193) 
DIHBGMGXKWDIPC-QWHCGFSZSA-N

>  <CanonSites upload name>  (193) 
nan

>  <tags>  (193) 
['iter2']

>  <energy_score>  (193) 
26.843394

>  <original SMILES>  (193) 
CSc1ccccc1CC(=O)N1CC[C@H]2CNC(=O)[C@@H]2C1

>  <ref_mols>  (193) 
A4386a

>  <Pose>  (193) 
nan

>  <distance_score>  (193) 
0.827496

>  <ConformerSites upload name>  (193) 
nan

>  <HIPPO Pose ID>  (193) 
293245

>  <Crystalforms alias>  (193) 
nan

>  <original ID>  (193) 
DIHBGMGXKWDIPC-QWHCGFSZSA-N

>  <CanonSites alias>  (193) 
nan

>  <CrystalformSites alias>  (193) 
nan

>  <ref_pdb>  (193) 
A4386a

>  <CanonSites short tag>  (193) 
nan

>  <Quatassemblies alias>  (193) 
nan

>  <HIPPO Compound ID>  (193) 
122911

>  <CrystalformSites short tag>  (193) 
nan

$$$$
DIHBGMGXKWDIPC-STQMWFEESA-N
     RDKit          3D

 21 23  0  0  0  0  0  0  0  0999 V2000
    9.2192    9.0077   23.5181 C   0  0  0  0  0  0  0  0  0  0  0  0
    9.0785   10.7765   23.8773 S   0  0  0  0  0  0  0  0  0  0  0  0
    7.7276   10.9095   25.0478 C   0  0  0  0  0  0  0  0  0  0  0  0
    7.0304    9.7934   25.5216 C   0  0  0  0  0  0  0  0  0  0  0  0
    5.9555    9.9192   26.4081 C   0  0  0  0  0  0  0  0  0  0  0  0
    5.5617   11.1723   26.8492 C   0  0  0  0  0  0  0  0  0  0  0  0
    6.2502   12.2950   26.4070 C   0  0  0  0  0  0  0  0  0  0  0  0
    7.3398   12.1793   25.5185 C   0  0  0  0  0  0  0  0  0  0  0  0
    8.0363   13.4542   25.1019 C   0  0  0  0  0  0  0  0  0  0  0  0
    7.3649   14.2032   23.9470 C   0  0  0  0  0  0  0  0  0  0  0  0
    6.1685   14.2727   23.8621 O   0  0  0  0  0  0  0  0  0  0  0  0
    8.3906   14.8119   23.1555 N   0  0  0  0  0  0  0  0  0  0  0  0
    8.7770   16.1311   23.7448 C   0  0  0  0  0  0  0  0  0  0  0  0
   10.2955   16.2842   23.6605 C   0  0  0  0  0  0  0  0  0  0  0  0
   10.6803   16.5262   22.2236 C   0  0  1  0  0  0  0  0  0  0  0  0
   11.5294   15.4329   21.6046 C   0  0  0  0  0  0  0  0  0  0  0  0
   11.1922   15.4949   20.2218 N   0  0  0  0  0  0  0  0  0  0  0  0
    9.9869   16.1158   20.0072 C   0  0  0  0  0  0  0  0  0  0  0  0
    9.4626   16.2829   18.9234 O   0  0  0  0  0  0  0  0  0  0  0  0
    9.4406   16.5545   21.3433 C   0  0  1  0  0  0  0  0  0  0  0  0
    8.2998   15.6545   21.8772 C   0  0  0  0  0  0  0  0  0  0  0  0
  1  2  1  0
  2  3  1  0
  3  4  2  0
  4  5  1  0
  5  6  2  0
  6  7  1  0
  7  8  2  0
  8  9  1  0
  9 10  1  0
 10 11  2  0
 10 12  1  0
 12 13  1  0
 13 14  1  0
 15 14  1  1
 15 16  1  0
 16 17  1  0
 17 18  1  0
 18 19  2  0
 18 20  1  0
 20 21  1  1
  8  3  1  0
 21 12  1  0
 20 15  1  0
M  END
>  <alias>  (194) 
None

>  <Experiment code>  (194) 
nan

>  <CrystalformSites upload name>  (194) 
nan

>  <inchikey>  (194) 
DIHBGMGXKWDIPC-STQMWFEESA-N

>  <Crystalforms upload name>  (194) 
nan

>  <Quatassemblies upload name>  (194) 
nan

>  <ConformerSites alias>  (194) 
nan

>  <ConformerSites short tag>  (194) 
nan

>  <Crystalforms short tag>  (194) 
nan

>  <Centroid res>  (194) 
nan

>  <Quatassemblies short tag>  (194) 
nan

>  <observation_longname>  (194) 
nan

>  <name>  (194) 
DIHBGMGXKWDIPC-STQMWFEESA-N

>  <CanonSites upload name>  (194) 
nan

>  <tags>  (194) 
['iter2']

>  <energy_score>  (194) 
13.004747

>  <original SMILES>  (194) 
CSc1ccccc1CC(=O)N1CC[C@H]2CNC(=O)[C@H]2C1

>  <ref_mols>  (194) 
A4386a

>  <Pose>  (194) 
nan

>  <distance_score>  (194) 
0.917111

>  <ConformerSites upload name>  (194) 
nan

>  <HIPPO Pose ID>  (194) 
293246

>  <Crystalforms alias>  (194) 
nan

>  <original ID>  (194) 
DIHBGMGXKWDIPC-STQMWFEESA-N

>  <CanonSites alias>  (194) 
nan

>  <CrystalformSites alias>  (194) 
nan

>  <ref_pdb>  (194) 
A4386a

>  <CanonSites short tag>  (194) 
nan

>  <Quatassemblies alias>  (194) 
nan

>  <HIPPO Compound ID>  (194) 
122911

>  <CrystalformSites short tag>  (194) 
nan

$$$$
CJGWUQPZRLLSPL-JTQLQIEISA-N
     RDKit          3D

 21 22  0  0  0  0  0  0  0  0999 V2000
    9.2042    9.0723   23.5704 C   0  0  0  0  0  0  0  0  0  0  0  0
    9.0390   10.8438   23.9142 S   0  0  0  0  0  0  0  0  0  0  0  0
    7.6766   10.9631   25.0777 C   0  0  0  0  0  0  0  0  0  0  0  0
    6.9898    9.8370   25.5455 C   0  0  0  0  0  0  0  0  0  0  0  0
    5.9194    9.9486   26.4403 C   0  0  0  0  0  0  0  0  0  0  0  0
    5.5231   11.1990   26.8880 C   0  0  0  0  0  0  0  0  0  0  0  0
    4.1040   11.3538   28.1244 Br  0  0  0  0  0  0  0  0  0  0  0  0
    6.1885   12.3349   26.4473 C   0  0  0  0  0  0  0  0  0  0  0  0
    7.2744   12.2301   25.5528 C   0  0  0  0  0  0  0  0  0  0  0  0
    7.9711   13.5101   25.1507 C   0  0  0  0  0  0  0  0  0  0  0  0
    7.5973   14.0286   23.7594 C   0  0  0  0  0  0  0  0  0  0  0  0
    6.4589   14.0359   23.3772 O   0  0  0  0  0  0  0  0  0  0  0  0
    8.7855   14.5361   23.1482 N   0  0  0  0  0  0  0  0  0  0  0  0
    9.0245   15.9699   23.5832 C   0  0  0  0  0  0  0  0  0  0  0  0
   10.5188   16.2911   23.6569 C   0  0  0  0  0  0  0  0  0  0  0  0
   11.0092   16.5558   22.2551 C   0  0  0  0  0  0  0  0  0  0  0  0
   10.4681   15.4333   21.3911 C   0  0  2  0  0  0  0  0  0  0  0  0
   10.5304   15.7929   19.8981 C   0  0  0  0  0  0  0  0  0  0  0  0
   10.7871   14.6135   19.1210 N   0  0  0  0  0  0  0  0  0  0  0  0
   10.3935   16.9315   19.5625 O   0  0  0  0  0  0  0  0  0  0  0  0
    9.0103   15.1420   21.7800 C   0  0  0  0  0  0  0  0  0  0  0  0
  1  2  1  0
  2  3  1  0
  3  4  2  0
  4  5  1  0
  5  6  2  0
  6  7  1  0
  6  8  1  0
  8  9  2  0
  9 10  1  0
 10 11  1  0
 11 12  2  0
 11 13  1  0
 13 14  1  0
 14 15  1  0
 15 16  1  0
 16 17  1  0
 17 18  1  6
 18 19  1  0
 18 20  2  0
 17 21  1  0
  9  3  1  0
 21 13  1  0
M  END
>  <alias>  (195) 
None

>  <Experiment code>  (195) 
nan

>  <CrystalformSites upload name>  (195) 
nan

>  <inchikey>  (195) 
CJGWUQPZRLLSPL-JTQLQIEISA-N

>  <Crystalforms upload name>  (195) 
nan

>  <Quatassemblies upload name>  (195) 
nan

>  <ConformerSites alias>  (195) 
nan

>  <ConformerSites short tag>  (195) 
nan

>  <Crystalforms short tag>  (195) 
nan

>  <Centroid res>  (195) 
nan

>  <Quatassemblies short tag>  (195) 
nan

>  <observation_longname>  (195) 
nan

>  <name>  (195) 
CJGWUQPZRLLSPL-JTQLQIEISA-N

>  <CanonSites upload name>  (195) 
nan

>  <tags>  (195) 
['iter2']

>  <energy_score>  (195) 
160.796088

>  <original SMILES>  (195) 
CSc1ccc(Br)cc1CC(=O)N1CCC[C@H](C(N)=O)C1

>  <ref_mols>  (195) 
A4386a

>  <Pose>  (195) 
nan

>  <distance_score>  (195) 
0.618779

>  <ConformerSites upload name>  (195) 
nan

>  <HIPPO Pose ID>  (195) 
293297

>  <Crystalforms alias>  (195) 
nan

>  <original ID>  (195) 
CJGWUQPZRLLSPL-JTQLQIEISA-N

>  <CanonSites alias>  (195) 
nan

>  <CrystalformSites alias>  (195) 
nan

>  <ref_pdb>  (195) 
A4386a

>  <CanonSites short tag>  (195) 
nan

>  <Quatassemblies alias>  (195) 
nan

>  <HIPPO Compound ID>  (195) 
122752

>  <CrystalformSites short tag>  (195) 
nan

$$$$
CJGWUQPZRLLSPL-SNVBAGLBSA-N
     RDKit          3D

 21 22  0  0  0  0  0  0  0  0999 V2000
    9.2242    9.0108   23.5419 C   0  0  0  0  0  0  0  0  0  0  0  0
    9.1087   10.7858   23.8758 S   0  0  0  0  0  0  0  0  0  0  0  0
    7.7525   10.9533   25.0353 C   0  0  0  0  0  0  0  0  0  0  0  0
    7.0362    9.8517   25.5178 C   0  0  0  0  0  0  0  0  0  0  0  0
    5.9679   10.0038   26.4079 C   0  0  0  0  0  0  0  0  0  0  0  0
    5.6028   11.2722   26.8328 C   0  0  0  0  0  0  0  0  0  0  0  0
    4.1788   11.4836   28.0553 Br  0  0  0  0  0  0  0  0  0  0  0  0
    6.3005   12.3844   26.3784 C   0  0  0  0  0  0  0  0  0  0  0  0
    7.3872   12.2379   25.4911 C   0  0  0  0  0  0  0  0  0  0  0  0
    8.1181   13.4918   25.0611 C   0  0  0  0  0  0  0  0  0  0  0  0
    7.6879   14.0401   23.6971 C   0  0  0  0  0  0  0  0  0  0  0  0
    6.5327   14.0491   23.3674 O   0  0  0  0  0  0  0  0  0  0  0  0
    8.8459   14.5679   23.0429 N   0  0  0  0  0  0  0  0  0  0  0  0
    9.0951   15.9763   23.4919 C   0  0  0  0  0  0  0  0  0  0  0  0
   10.6103   16.1882   23.6376 C   0  0  0  0  0  0  0  0  0  0  0  0
   11.3229   15.8004   22.3500 C   0  0  0  0  0  0  0  0  0  0  0  0
   10.3044   15.9782   21.2494 C   0  0  1  0  0  0  0  0  0  0  0  0
   10.6076   15.7000   19.7625 C   0  0  0  0  0  0  0  0  0  0  0  0
   11.9613   15.3014   19.4749 N   0  0  0  0  0  0  0  0  0  0  0  0
    9.6706   15.8685   19.0314 O   0  0  0  0  0  0  0  0  0  0  0  0
    9.0066   15.2113   21.6640 C   0  0  0  0  0  0  0  0  0  0  0  0
  1  2  1  0
  2  3  1  0
  3  4  2  0
  4  5  1  0
  5  6  2  0
  6  7  1  0
  6  8  1  0
  8  9  2  0
  9 10  1  0
 10 11  1  0
 11 12  2  0
 11 13  1  0
 13 14  1  0
 14 15  1  0
 15 16  1  0
 16 17  1  0
 17 18  1  6
 18 19  1  0
 18 20  2  0
 17 21  1  0
  9  3  1  0
 21 13  1  0
M  END
>  <alias>  (196) 
None

>  <Experiment code>  (196) 
nan

>  <CrystalformSites upload name>  (196) 
nan

>  <inchikey>  (196) 
CJGWUQPZRLLSPL-SNVBAGLBSA-N

>  <Crystalforms upload name>  (196) 
nan

>  <Quatassemblies upload name>  (196) 
nan

>  <ConformerSites alias>  (196) 
nan

>  <ConformerSites short tag>  (196) 
nan

>  <Crystalforms short tag>  (196) 
nan

>  <Centroid res>  (196) 
nan

>  <Quatassemblies short tag>  (196) 
nan

>  <observation_longname>  (196) 
nan

>  <name>  (196) 
CJGWUQPZRLLSPL-SNVBAGLBSA-N

>  <CanonSites upload name>  (196) 
nan

>  <tags>  (196) 
['iter2']

>  <energy_score>  (196) 
201.322115

>  <original SMILES>  (196) 
CSc1ccc(Br)cc1CC(=O)N1CCC[C@@H](C(N)=O)C1

>  <ref_mols>  (196) 
A4386a

>  <Pose>  (196) 
nan

>  <distance_score>  (196) 
0.696679

>  <ConformerSites upload name>  (196) 
nan

>  <HIPPO Pose ID>  (196) 
293298

>  <Crystalforms alias>  (196) 
nan

>  <original ID>  (196) 
CJGWUQPZRLLSPL-SNVBAGLBSA-N

>  <CanonSites alias>  (196) 
nan

>  <CrystalformSites alias>  (196) 
nan

>  <ref_pdb>  (196) 
A4386a

>  <CanonSites short tag>  (196) 
nan

>  <Quatassemblies alias>  (196) 
nan

>  <HIPPO Compound ID>  (196) 
122752

>  <CrystalformSites short tag>  (196) 
nan

$$$$
MATXBLKTWRNYBE-OAHLLOKOSA-N
     RDKit          3D

 21 22  0  0  0  0  0  0  0  0999 V2000
    9.1880    9.0773   23.5421 C   0  0  0  0  0  0  0  0  0  0  0  0
    9.0694   10.8383   23.9505 S   0  0  0  0  0  0  0  0  0  0  0  0
    7.6888   10.9609   25.0909 C   0  0  0  0  0  0  0  0  0  0  0  0
    7.0041    9.8345   25.5605 C   0  0  0  0  0  0  0  0  0  0  0  0
    5.9195    9.9475   26.4362 C   0  0  0  0  0  0  0  0  0  0  0  0
    5.5017   11.1970   26.8673 C   0  0  0  0  0  0  0  0  0  0  0  0
    6.1725   12.3310   26.4245 C   0  0  0  0  0  0  0  0  0  0  0  0
    7.2711   12.2296   25.5470 C   0  0  0  0  0  0  0  0  0  0  0  0
    7.9556   13.5135   25.1308 C   0  0  0  0  0  0  0  0  0  0  0  0
    7.6210   13.9766   23.7093 C   0  0  0  0  0  0  0  0  0  0  0  0
    6.4921   13.9654   23.2978 O   0  0  0  0  0  0  0  0  0  0  0  0
    8.8245   14.4537   23.1053 N   0  0  0  0  0  0  0  0  0  0  0  0
    9.0540   15.9063   23.4759 C   0  0  0  0  0  0  0  0  0  0  0  0
   10.5403   16.2633   23.5475 C   0  0  0  0  0  0  0  0  0  0  0  0
   11.0557   16.4740   22.1420 C   0  0  0  0  0  0  0  0  0  0  0  0
   10.5452   15.3109   21.3123 C   0  0  2  0  0  0  0  0  0  0  0  0
   11.4272   14.1963   21.5517 O   0  0  0  0  0  0  0  0  0  0  0  0
   10.6278   15.6719   19.8098 C   0  0  0  0  0  0  0  0  0  0  0  0
   11.9725   15.4166   19.3485 N   0  0  0  0  0  0  0  0  0  0  0  0
    9.6716   16.0973   19.2290 O   0  0  0  0  0  0  0  0  0  0  0  0
    9.0854   14.9936   21.7128 C   0  0  0  0  0  0  0  0  0  0  0  0
  1  2  1  0
  2  3  1  0
  3  4  2  0
  4  5  1  0
  5  6  2  0
  6  7  1  0
  7  8  2  0
  8  9  1  0
  9 10  1  0
 10 11  2  0
 10 12  1  0
 12 13  1  0
 13 14  1  0
 14 15  1  0
 15 16  1  0
 16 17  1  6
 16 18  1  0
 18 19  1  0
 18 20  2  0
 16 21  1  0
  8  3  1  0
 21 12  1  0
M  END
>  <alias>  (197) 
None

>  <Experiment code>  (197) 
nan

>  <CrystalformSites upload name>  (197) 
nan

>  <inchikey>  (197) 
MATXBLKTWRNYBE-OAHLLOKOSA-N

>  <Crystalforms upload name>  (197) 
nan

>  <Quatassemblies upload name>  (197) 
nan

>  <ConformerSites alias>  (197) 
nan

>  <ConformerSites short tag>  (197) 
nan

>  <Crystalforms short tag>  (197) 
nan

>  <Centroid res>  (197) 
nan

>  <Quatassemblies short tag>  (197) 
nan

>  <observation_longname>  (197) 
nan

>  <name>  (197) 
MATXBLKTWRNYBE-OAHLLOKOSA-N

>  <CanonSites upload name>  (197) 
nan

>  <tags>  (197) 
['iter2']

>  <energy_score>  (197) 
179.797219

>  <original SMILES>  (197) 
CSc1ccccc1CC(=O)N1CCC[C@](O)(C(N)=O)C1

>  <ref_mols>  (197) 
A4386a

>  <Pose>  (197) 
nan

>  <distance_score>  (197) 
0.893232

>  <ConformerSites upload name>  (197) 
nan

>  <HIPPO Pose ID>  (197) 
293321

>  <Crystalforms alias>  (197) 
nan

>  <original ID>  (197) 
MATXBLKTWRNYBE-OAHLLOKOSA-N

>  <CanonSites alias>  (197) 
nan

>  <CrystalformSites alias>  (197) 
nan

>  <ref_pdb>  (197) 
A4386a

>  <CanonSites short tag>  (197) 
nan

>  <Quatassemblies alias>  (197) 
nan

>  <HIPPO Compound ID>  (197) 
122922

>  <CrystalformSites short tag>  (197) 
nan

$$$$
MATXBLKTWRNYBE-HNNXBMFYSA-N
     RDKit          3D

 21 22  0  0  0  0  0  0  0  0999 V2000
    9.2542    8.8991   23.5241 C   0  0  0  0  0  0  0  0  0  0  0  0
    9.1705   10.6832   23.7921 S   0  0  0  0  0  0  0  0  0  0  0  0
    7.8365   10.9102   24.9649 C   0  0  0  0  0  0  0  0  0  0  0  0
    7.0970    9.8416   25.4844 C   0  0  0  0  0  0  0  0  0  0  0  0
    6.0382   10.0462   26.3738 C   0  0  0  0  0  0  0  0  0  0  0  0
    5.7025   11.3335   26.7652 C   0  0  0  0  0  0  0  0  0  0  0  0
    6.4328   12.4107   26.2731 C   0  0  0  0  0  0  0  0  0  0  0  0
    7.5092   12.2145   25.3843 C   0  0  0  0  0  0  0  0  0  0  0  0
    8.2569   13.4368   24.8943 C   0  0  0  0  0  0  0  0  0  0  0  0
    7.7537   13.9867   23.5538 C   0  0  0  0  0  0  0  0  0  0  0  0
    6.5833   13.9692   23.2819 O   0  0  0  0  0  0  0  0  0  0  0  0
    8.8646   14.5487   22.8466 N   0  0  0  0  0  0  0  0  0  0  0  0
    9.1011   15.9639   23.2972 C   0  0  0  0  0  0  0  0  0  0  0  0
   10.6122   16.2506   23.3412 C   0  0  0  0  0  0  0  0  0  0  0  0
   11.2521   15.9633   21.9892 C   0  0  0  0  0  0  0  0  0  0  0  0
   10.1391   16.0681   20.9657 C   0  0  1  0  0  0  0  0  0  0  0  0
    9.7022   17.4477   21.0135 O   0  0  0  0  0  0  0  0  0  0  0  0
   10.5938   15.8166   19.4799 C   0  0  0  0  0  0  0  0  0  0  0  0
   11.1745   14.5230   19.2437 N   0  0  0  0  0  0  0  0  0  0  0  0
   10.4707   16.7638   18.7509 O   0  0  0  0  0  0  0  0  0  0  0  0
    8.9394   15.2097   21.4592 C   0  0  0  0  0  0  0  0  0  0  0  0
  1  2  1  0
  2  3  1  0
  3  4  2  0
  4  5  1  0
  5  6  2  0
  6  7  1  0
  7  8  2  0
  8  9  1  0
  9 10  1  0
 10 11  2  0
 10 12  1  0
 12 13  1  0
 13 14  1  0
 14 15  1  0
 15 16  1  0
 16 17  1  6
 16 18  1  0
 18 19  1  0
 18 20  2  0
 16 21  1  0
  8  3  1  0
 21 12  1  0
M  END
>  <alias>  (198) 
None

>  <Experiment code>  (198) 
nan

>  <CrystalformSites upload name>  (198) 
nan

>  <inchikey>  (198) 
MATXBLKTWRNYBE-HNNXBMFYSA-N

>  <Crystalforms upload name>  (198) 
nan

>  <Quatassemblies upload name>  (198) 
nan

>  <ConformerSites alias>  (198) 
nan

>  <ConformerSites short tag>  (198) 
nan

>  <Crystalforms short tag>  (198) 
nan

>  <Centroid res>  (198) 
nan

>  <Quatassemblies short tag>  (198) 
nan

>  <observation_longname>  (198) 
nan

>  <name>  (198) 
MATXBLKTWRNYBE-HNNXBMFYSA-N

>  <CanonSites upload name>  (198) 
nan

>  <tags>  (198) 
['iter2']

>  <energy_score>  (198) 
171.906014

>  <original SMILES>  (198) 
CSc1ccccc1CC(=O)N1CCC[C@@](O)(C(N)=O)C1

>  <ref_mols>  (198) 
A4386a

>  <Pose>  (198) 
nan

>  <distance_score>  (198) 
0.630264

>  <ConformerSites upload name>  (198) 
nan

>  <HIPPO Pose ID>  (198) 
293322

>  <Crystalforms alias>  (198) 
nan

>  <original ID>  (198) 
MATXBLKTWRNYBE-HNNXBMFYSA-N

>  <CanonSites alias>  (198) 
nan

>  <CrystalformSites alias>  (198) 
nan

>  <ref_pdb>  (198) 
A4386a

>  <CanonSites short tag>  (198) 
nan

>  <Quatassemblies alias>  (198) 
nan

>  <HIPPO Compound ID>  (198) 
122922

>  <CrystalformSites short tag>  (198) 
nan

$$$$
CMSBLBNUDOKASG-CYBMUJFWSA-N
     RDKit          3D

 21 22  0  0  0  0  0  0  0  0999 V2000
   11.2014   15.5354   18.8296 C   0  0  0  0  0  0  0  0  0  0  0  0
   10.5718   15.6325   20.0986 N   0  0  0  0  0  0  0  0  0  0  0  0
    9.7308   16.6434   20.6512 C   0  0  0  0  0  0  0  0  0  0  0  0
    9.4030   17.7059   20.2188 O   0  0  0  0  0  0  0  0  0  0  0  0
    9.2812   16.2868   22.0727 C   0  0  2  0  0  0  0  0  0  0  0  0
   10.4719   16.4493   22.9987 C   0  0  0  0  0  0  0  0  0  0  0  0
   11.0492   15.1144   23.3711 C   0  0  0  0  0  0  0  0  0  0  0  0
   10.0645   13.9784   23.1018 C   0  0  0  0  0  0  0  0  0  0  0  0
    8.5980   14.1445   23.4644 N   0  0  0  0  0  0  0  0  0  0  0  0
    8.4717   14.5965   24.8039 C   0  0  0  0  0  0  0  0  0  0  0  0
    8.4139   15.7141   25.2521 O   0  0  0  0  0  0  0  0  0  0  0  0
    8.5223   13.4431   25.7779 C   0  0  0  0  0  0  0  0  0  0  0  0
    7.4782   12.3437   25.7691 C   0  0  0  0  0  0  0  0  0  0  0  0
    6.3262   12.5656   26.5529 C   0  0  0  0  0  0  0  0  0  0  0  0
    5.4530   11.5257   26.8603 C   0  0  0  0  0  0  0  0  0  0  0  0
    5.7156   10.2490   26.3866 C   0  0  0  0  0  0  0  0  0  0  0  0
    6.8114   10.0304   25.5491 C   0  0  0  0  0  0  0  0  0  0  0  0
    7.6895   11.0647   25.1979 C   0  0  0  0  0  0  0  0  0  0  0  0
    9.0529   10.7804   24.0688 S   0  0  0  0  0  0  0  0  0  0  0  0
    9.0664    9.0005   23.7340 C   0  0  0  0  0  0  0  0  0  0  0  0
    8.5875   14.9067   22.1615 C   0  0  0  0  0  0  0  0  0  0  0  0
  1  2  1  0
  2  3  1  0
  3  4  2  0
  5  3  1  6
  5  6  1  0
  6  7  1  0
  7  8  1  0
  8  9  1  0
  9 10  1  0
 10 11  2  0
 10 12  1  0
 12 13  1  0
 13 14  2  0
 14 15  1  0
 15 16  2  0
 16 17  1  0
 17 18  2  0
 18 19  1  0
 19 20  1  0
  9 21  1  0
 21  5  1  0
 18 13  1  0
M  END
>  <alias>  (199) 
None

>  <Experiment code>  (199) 
nan

>  <CrystalformSites upload name>  (199) 
nan

>  <inchikey>  (199) 
CMSBLBNUDOKASG-CYBMUJFWSA-N

>  <Crystalforms upload name>  (199) 
nan

>  <Quatassemblies upload name>  (199) 
nan

>  <ConformerSites alias>  (199) 
nan

>  <ConformerSites short tag>  (199) 
nan

>  <Crystalforms short tag>  (199) 
nan

>  <Centroid res>  (199) 
nan

>  <Quatassemblies short tag>  (199) 
nan

>  <observation_longname>  (199) 
nan

>  <name>  (199) 
CMSBLBNUDOKASG-CYBMUJFWSA-N

>  <CanonSites upload name>  (199) 
nan

>  <tags>  (199) 
['iter2']

>  <energy_score>  (199) 
64.861407

>  <original SMILES>  (199) 
CNC(=O)[C@@H]1CCCN(C(=O)Cc2ccccc2SC)C1

>  <ref_mols>  (199) 
A4386a

>  <Pose>  (199) 
nan

>  <distance_score>  (199) 
1.258359

>  <ConformerSites upload name>  (199) 
nan

>  <HIPPO Pose ID>  (199) 
293329

>  <Crystalforms alias>  (199) 
nan

>  <original ID>  (199) 
CMSBLBNUDOKASG-CYBMUJFWSA-N

>  <CanonSites alias>  (199) 
nan

>  <CrystalformSites alias>  (199) 
nan

>  <ref_pdb>  (199) 
A4386a

>  <CanonSites short tag>  (199) 
nan

>  <Quatassemblies alias>  (199) 
nan

>  <HIPPO Compound ID>  (199) 
154894

>  <CrystalformSites short tag>  (199) 
nan

$$$$
CMSBLBNUDOKASG-ZDUSSCGKSA-N
     RDKit          3D

 21 22  0  0  0  0  0  0  0  0999 V2000
   11.0133   15.4776   18.8266 C   0  0  0  0  0  0  0  0  0  0  0  0
   10.6265   15.2416   20.1741 N   0  0  0  0  0  0  0  0  0  0  0  0
    9.7641   15.9721   21.0396 C   0  0  0  0  0  0  0  0  0  0  0  0
    9.2038   17.0143   20.8844 O   0  0  0  0  0  0  0  0  0  0  0  0
    9.6838   15.2779   22.3892 C   0  0  1  0  0  0  0  0  0  0  0  0
   10.7716   15.8881   23.2631 C   0  0  0  0  0  0  0  0  0  0  0  0
   10.3951   15.7186   24.7136 C   0  0  0  0  0  0  0  0  0  0  0  0
    8.8816   15.8786   24.8790 C   0  0  0  0  0  0  0  0  0  0  0  0
    8.1042   14.7120   24.3012 N   0  0  0  0  0  0  0  0  0  0  0  0
    6.9281   14.4739   25.0762 C   0  0  0  0  0  0  0  0  0  0  0  0
    5.8139   14.9075   24.9594 O   0  0  0  0  0  0  0  0  0  0  0  0
    7.3317   13.5891   26.2430 C   0  0  0  0  0  0  0  0  0  0  0  0
    6.6871   12.2268   26.2833 C   0  0  0  0  0  0  0  0  0  0  0  0
    5.5714   12.0858   27.1330 C   0  0  0  0  0  0  0  0  0  0  0  0
    4.9702   10.8510   27.3231 C   0  0  0  0  0  0  0  0  0  0  0  0
    5.4712    9.7450   26.6566 C   0  0  0  0  0  0  0  0  0  0  0  0
    6.5623    9.8740   25.7904 C   0  0  0  0  0  0  0  0  0  0  0  0
    7.1805   11.1093   25.5689 C   0  0  0  0  0  0  0  0  0  0  0  0
    8.5562   11.2880   24.4205 S   0  0  0  0  0  0  0  0  0  0  0  0
    8.9532    9.5972   23.8867 C   0  0  0  0  0  0  0  0  0  0  0  0
    8.3015   15.4926   23.0239 C   0  0  0  0  0  0  0  0  0  0  0  0
  1  2  1  0
  2  3  1  0
  3  4  2  0
  5  3  1  6
  5  6  1  0
  6  7  1  0
  7  8  1  0
  8  9  1  0
  9 10  1  0
 10 11  2  0
 10 12  1  0
 12 13  1  0
 13 14  2  0
 14 15  1  0
 15 16  2  0
 16 17  1  0
 17 18  2  0
 18 19  1  0
 19 20  1  0
  9 21  1  0
 21  5  1  0
 18 13  1  0
M  END
>  <alias>  (200) 
None

>  <Experiment code>  (200) 
nan

>  <CrystalformSites upload name>  (200) 
nan

>  <inchikey>  (200) 
CMSBLBNUDOKASG-ZDUSSCGKSA-N

>  <Crystalforms upload name>  (200) 
nan

>  <Quatassemblies upload name>  (200) 
nan

>  <ConformerSites alias>  (200) 
nan

>  <ConformerSites short tag>  (200) 
nan

>  <Crystalforms short tag>  (200) 
nan

>  <Centroid res>  (200) 
nan

>  <Quatassemblies short tag>  (200) 
nan

>  <observation_longname>  (200) 
nan

>  <name>  (200) 
CMSBLBNUDOKASG-ZDUSSCGKSA-N

>  <CanonSites upload name>  (200) 
nan

>  <tags>  (200) 
['iter2']

>  <energy_score>  (200) 
24.559621

>  <original SMILES>  (200) 
CNC(=O)[C@H]1CCCN(C(=O)Cc2ccccc2SC)C1

>  <ref_mols>  (200) 
A4386a

>  <Pose>  (200) 
nan

>  <distance_score>  (200) 
1.459625

>  <ConformerSites upload name>  (200) 
nan

>  <HIPPO Pose ID>  (200) 
293330

>  <Crystalforms alias>  (200) 
nan

>  <original ID>  (200) 
CMSBLBNUDOKASG-ZDUSSCGKSA-N

>  <CanonSites alias>  (200) 
nan

>  <CrystalformSites alias>  (200) 
nan

>  <ref_pdb>  (200) 
A4386a

>  <CanonSites short tag>  (200) 
nan

>  <Quatassemblies alias>  (200) 
nan

>  <HIPPO Compound ID>  (200) 
154894

>  <CrystalformSites short tag>  (200) 
nan

$$$$
VVIDWLPPPADVQU-WCQYABFASA-N
     RDKit          3D

 21 22  0  0  0  0  0  0  0  0999 V2000
    9.2321    8.9738   23.5076 C   0  0  0  0  0  0  0  0  0  0  0  0
    9.0872   10.7247   23.9401 S   0  0  0  0  0  0  0  0  0  0  0  0
    7.6953   10.8095   25.0646 C   0  0  0  0  0  0  0  0  0  0  0  0
    7.0000    9.6801   25.4987 C   0  0  0  0  0  0  0  0  0  0  0  0
    5.8901    9.7769   26.3470 C   0  0  0  0  0  0  0  0  0  0  0  0
    5.4566   11.0140   26.7911 C   0  0  0  0  0  0  0  0  0  0  0  0
    6.1440   12.1496   26.3917 C   0  0  0  0  0  0  0  0  0  0  0  0
    7.2727   12.0585   25.5489 C   0  0  0  0  0  0  0  0  0  0  0  0
    8.0004   13.3390   25.2289 C   0  0  0  0  0  0  0  0  0  0  0  0
    7.5805   14.0308   23.9268 C   0  0  0  0  0  0  0  0  0  0  0  0
    6.4219   14.0962   23.6143 O   0  0  0  0  0  0  0  0  0  0  0  0
    8.7545   14.5374   23.2709 N   0  0  0  0  0  0  0  0  0  0  0  0
    8.9218   15.2256   21.9009 C   0  0  0  0  0  0  0  0  0  0  0  0
   10.2513   15.9243   21.4620 C   0  0  2  0  0  0  0  0  0  0  0  0
   10.5208   15.6680   19.9555 C   0  0  0  0  0  0  0  0  0  0  0  0
   11.8853   15.3344   19.6238 N   0  0  0  0  0  0  0  0  0  0  0  0
    9.5636   15.8329   19.2502 O   0  0  0  0  0  0  0  0  0  0  0  0
   11.2770   15.6601   22.5330 C   0  0  0  0  0  0  0  0  0  0  0  0
   10.6246   16.0711   23.8442 C   0  0  0  0  0  0  0  0  0  0  0  0
    9.0758   15.9600   23.7761 C   0  0  2  0  0  0  0  0  0  0  0  0
    8.6094   16.2467   25.2335 C   0  0  0  0  0  0  0  0  0  0  0  0
  1  2  1  0
  2  3  1  0
  3  4  2  0
  4  5  1  0
  5  6  2  0
  6  7  1  0
  7  8  2  0
  8  9  1  0
  9 10  1  0
 10 11  2  0
 10 12  1  0
 12 13  1  0
 13 14  1  0
 14 15  1  6
 15 16  1  0
 15 17  2  0
 14 18  1  0
 18 19  1  0
 19 20  1  0
 20 21  1  1
  8  3  1  0
 20 12  1  0
M  END
>  <alias>  (201) 
None

>  <Experiment code>  (201) 
nan

>  <CrystalformSites upload name>  (201) 
nan

>  <inchikey>  (201) 
VVIDWLPPPADVQU-WCQYABFASA-N

>  <Crystalforms upload name>  (201) 
nan

>  <Quatassemblies upload name>  (201) 
nan

>  <ConformerSites alias>  (201) 
nan

>  <ConformerSites short tag>  (201) 
nan

>  <Crystalforms short tag>  (201) 
nan

>  <Centroid res>  (201) 
nan

>  <Quatassemblies short tag>  (201) 
nan

>  <observation_longname>  (201) 
nan

>  <name>  (201) 
VVIDWLPPPADVQU-WCQYABFASA-N

>  <CanonSites upload name>  (201) 
nan

>  <tags>  (201) 
['iter2']

>  <energy_score>  (201) 
149.64799

>  <original SMILES>  (201) 
CSc1ccccc1CC(=O)N1C[C@H](C(N)=O)CC[C@@H]1C

>  <ref_mols>  (201) 
A4386a

>  <Pose>  (201) 
nan

>  <distance_score>  (201) 
0.718967

>  <ConformerSites upload name>  (201) 
nan

>  <HIPPO Pose ID>  (201) 
293331

>  <Crystalforms alias>  (201) 
nan

>  <original ID>  (201) 
VVIDWLPPPADVQU-WCQYABFASA-N

>  <CanonSites alias>  (201) 
nan

>  <CrystalformSites alias>  (201) 
nan

>  <ref_pdb>  (201) 
A4386a

>  <CanonSites short tag>  (201) 
nan

>  <Quatassemblies alias>  (201) 
nan

>  <HIPPO Compound ID>  (201) 
122913

>  <CrystalformSites short tag>  (201) 
nan

$$$$
VVIDWLPPPADVQU-AAEUAGOBSA-N
     RDKit          3D

 21 22  0  0  0  0  0  0  0  0999 V2000
    9.2390    8.9130   23.5231 C   0  0  0  0  0  0  0  0  0  0  0  0
    9.0985   10.6723   23.9105 S   0  0  0  0  0  0  0  0  0  0  0  0
    7.7006   10.7890   25.0229 C   0  0  0  0  0  0  0  0  0  0  0  0
    7.0100    9.6727   25.4961 C   0  0  0  0  0  0  0  0  0  0  0  0
    5.9049    9.7936   26.3471 C   0  0  0  0  0  0  0  0  0  0  0  0
    5.4713   11.0437   26.7533 C   0  0  0  0  0  0  0  0  0  0  0  0
    6.1511   12.1682   26.3101 C   0  0  0  0  0  0  0  0  0  0  0  0
    7.2730   12.0528   25.4611 C   0  0  0  0  0  0  0  0  0  0  0  0
    7.9998   13.3211   25.0926 C   0  0  0  0  0  0  0  0  0  0  0  0
    7.6781   13.9015   23.7053 C   0  0  0  0  0  0  0  0  0  0  0  0
    6.5557   13.8825   23.2747 O   0  0  0  0  0  0  0  0  0  0  0  0
    8.8951   14.3961   23.1193 N   0  0  0  0  0  0  0  0  0  0  0  0
    9.1721   14.9458   21.7309 C   0  0  0  0  0  0  0  0  0  0  0  0
   10.6174   15.2642   21.3156 C   0  0  1  0  0  0  0  0  0  0  0  0
   10.7834   15.4993   19.7883 C   0  0  0  0  0  0  0  0  0  0  0  0
   10.0264   16.6373   19.3010 N   0  0  0  0  0  0  0  0  0  0  0  0
   11.4919   14.7256   19.2054 O   0  0  0  0  0  0  0  0  0  0  0  0
   11.1578   16.4060   22.1443 C   0  0  0  0  0  0  0  0  0  0  0  0
   10.6282   16.2214   23.5458 C   0  0  0  0  0  0  0  0  0  0  0  0
    9.1142   15.8987   23.5130 C   0  0  2  0  0  0  0  0  0  0  0  0
    8.6472   16.1869   24.9696 C   0  0  0  0  0  0  0  0  0  0  0  0
  1  2  1  0
  2  3  1  0
  3  4  2  0
  4  5  1  0
  5  6  2  0
  6  7  1  0
  7  8  2  0
  8  9  1  0
  9 10  1  0
 10 11  2  0
 10 12  1  0
 12 13  1  0
 13 14  1  0
 14 15  1  6
 15 16  1  0
 15 17  2  0
 14 18  1  0
 18 19  1  0
 19 20  1  0
 20 21  1  1
  8  3  1  0
 20 12  1  0
M  END
>  <alias>  (202) 
None

>  <Experiment code>  (202) 
nan

>  <CrystalformSites upload name>  (202) 
nan

>  <inchikey>  (202) 
VVIDWLPPPADVQU-AAEUAGOBSA-N

>  <Crystalforms upload name>  (202) 
nan

>  <Quatassemblies upload name>  (202) 
nan

>  <ConformerSites alias>  (202) 
nan

>  <ConformerSites short tag>  (202) 
nan

>  <Crystalforms short tag>  (202) 
nan

>  <Centroid res>  (202) 
nan

>  <Quatassemblies short tag>  (202) 
nan

>  <observation_longname>  (202) 
nan

>  <name>  (202) 
VVIDWLPPPADVQU-AAEUAGOBSA-N

>  <CanonSites upload name>  (202) 
nan

>  <tags>  (202) 
['iter2']

>  <energy_score>  (202) 
163.950166

>  <original SMILES>  (202) 
CSc1ccccc1CC(=O)N1C[C@@H](C(N)=O)CC[C@@H]1C

>  <ref_mols>  (202) 
A4386a

>  <Pose>  (202) 
nan

>  <distance_score>  (202) 
0.578376

>  <ConformerSites upload name>  (202) 
nan

>  <HIPPO Pose ID>  (202) 
293332

>  <Crystalforms alias>  (202) 
nan

>  <original ID>  (202) 
VVIDWLPPPADVQU-AAEUAGOBSA-N

>  <CanonSites alias>  (202) 
nan

>  <CrystalformSites alias>  (202) 
nan

>  <ref_pdb>  (202) 
A4386a

>  <CanonSites short tag>  (202) 
nan

>  <Quatassemblies alias>  (202) 
nan

>  <HIPPO Compound ID>  (202) 
122913

>  <CrystalformSites short tag>  (202) 
nan

$$$$
VVIDWLPPPADVQU-DGCLKSJQSA-N
     RDKit          3D

 21 22  0  0  0  0  0  0  0  0999 V2000
    9.2259    8.7667   23.5406 C   0  0  0  0  0  0  0  0  0  0  0  0
    9.1553   10.5420   23.8399 S   0  0  0  0  0  0  0  0  0  0  0  0
    7.8224   10.7677   25.0145 C   0  0  0  0  0  0  0  0  0  0  0  0
    7.0090    9.7223   25.4518 C   0  0  0  0  0  0  0  0  0  0  0  0
    5.9353    9.9369   26.3217 C   0  0  0  0  0  0  0  0  0  0  0  0
    5.6528   11.2183   26.7694 C   0  0  0  0  0  0  0  0  0  0  0  0
    6.4693   12.2716   26.3753 C   0  0  0  0  0  0  0  0  0  0  0  0
    7.5725   12.0525   25.5269 C   0  0  0  0  0  0  0  0  0  0  0  0
    8.4930   13.2076   25.2457 C   0  0  0  0  0  0  0  0  0  0  0  0
    8.0610   14.1494   24.1359 C   0  0  0  0  0  0  0  0  0  0  0  0
    7.0300   14.7591   24.2467 O   0  0  0  0  0  0  0  0  0  0  0  0
    9.0818   14.2126   23.1223 N   0  0  0  0  0  0  0  0  0  0  0  0
    9.1302   15.0029   21.7798 C   0  0  0  0  0  0  0  0  0  0  0  0
   10.2076   15.8953   21.0776 C   0  0  2  0  0  0  0  0  0  0  0  0
   10.2484   15.8268   19.5388 C   0  0  0  0  0  0  0  0  0  0  0  0
   10.6835   14.5477   19.0492 N   0  0  0  0  0  0  0  0  0  0  0  0
    9.9965   16.8405   18.9544 O   0  0  0  0  0  0  0  0  0  0  0  0
   11.6069   15.7770   21.6286 C   0  0  0  0  0  0  0  0  0  0  0  0
   11.5137   15.0092   22.9044 C   0  0  0  0  0  0  0  0  0  0  0  0
   10.1192   15.2075   23.5090 C   0  0  1  0  0  0  0  0  0  0  0  0
    9.6943   16.6056   23.9317 C   0  0  0  0  0  0  0  0  0  0  0  0
  1  2  1  0
  2  3  1  0
  3  4  2  0
  4  5  1  0
  5  6  2  0
  6  7  1  0
  7  8  2  0
  8  9  1  0
  9 10  1  0
 10 11  2  0
 10 12  1  0
 12 13  1  0
 13 14  1  0
 14 15  1  6
 15 16  1  0
 15 17  2  0
 14 18  1  0
 18 19  1  0
 19 20  1  0
 20 21  1  6
  8  3  1  0
 20 12  1  0
M  END
>  <alias>  (203) 
None

>  <Experiment code>  (203) 
nan

>  <CrystalformSites upload name>  (203) 
nan

>  <inchikey>  (203) 
VVIDWLPPPADVQU-DGCLKSJQSA-N

>  <Crystalforms upload name>  (203) 
nan

>  <Quatassemblies upload name>  (203) 
nan

>  <ConformerSites alias>  (203) 
nan

>  <ConformerSites short tag>  (203) 
nan

>  <Crystalforms short tag>  (203) 
nan

>  <Centroid res>  (203) 
nan

>  <Quatassemblies short tag>  (203) 
nan

>  <observation_longname>  (203) 
nan

>  <name>  (203) 
VVIDWLPPPADVQU-DGCLKSJQSA-N

>  <CanonSites upload name>  (203) 
nan

>  <tags>  (203) 
['iter2']

>  <energy_score>  (203) 
142.901004

>  <original SMILES>  (203) 
CSc1ccccc1CC(=O)N1C[C@H](C(N)=O)CC[C@H]1C

>  <ref_mols>  (203) 
A4386a

>  <Pose>  (203) 
nan

>  <distance_score>  (203) 
0.618664

>  <ConformerSites upload name>  (203) 
nan

>  <HIPPO Pose ID>  (203) 
293333

>  <Crystalforms alias>  (203) 
nan

>  <original ID>  (203) 
VVIDWLPPPADVQU-DGCLKSJQSA-N

>  <CanonSites alias>  (203) 
nan

>  <CrystalformSites alias>  (203) 
nan

>  <ref_pdb>  (203) 
A4386a

>  <CanonSites short tag>  (203) 
nan

>  <Quatassemblies alias>  (203) 
nan

>  <HIPPO Compound ID>  (203) 
122913

>  <CrystalformSites short tag>  (203) 
nan

$$$$
VVIDWLPPPADVQU-YPMHNXCESA-N
     RDKit          3D

 21 22  0  0  0  0  0  0  0  0999 V2000
    9.2113    8.9091   23.5369 C   0  0  0  0  0  0  0  0  0  0  0  0
    9.1332   10.6744   23.9114 S   0  0  0  0  0  0  0  0  0  0  0  0
    7.7273   10.8558   25.0065 C   0  0  0  0  0  0  0  0  0  0  0  0
    7.0387    9.7623   25.5380 C   0  0  0  0  0  0  0  0  0  0  0  0
    5.9490    9.9286   26.3989 C   0  0  0  0  0  0  0  0  0  0  0  0
    5.5311   11.2022   26.7518 C   0  0  0  0  0  0  0  0  0  0  0  0
    6.2024   12.3061   26.2393 C   0  0  0  0  0  0  0  0  0  0  0  0
    7.3021   12.1479   25.3719 C   0  0  0  0  0  0  0  0  0  0  0  0
    7.9953   13.3928   24.8718 C   0  0  0  0  0  0  0  0  0  0  0  0
    7.7489   13.7287   23.3937 C   0  0  0  0  0  0  0  0  0  0  0  0
    6.6752   13.5642   22.8781 O   0  0  0  0  0  0  0  0  0  0  0  0
    8.9513   14.3168   22.8762 N   0  0  0  0  0  0  0  0  0  0  0  0
    9.2878   14.8125   21.4872 C   0  0  0  0  0  0  0  0  0  0  0  0
   10.7005   15.3138   21.1523 C   0  0  1  0  0  0  0  0  0  0  0  0
   10.8806   15.4946   19.6249 C   0  0  0  0  0  0  0  0  0  0  0  0
   10.0854   16.5753   19.0748 N   0  0  0  0  0  0  0  0  0  0  0  0
   11.6131   14.7122   19.0863 O   0  0  0  0  0  0  0  0  0  0  0  0
   11.0456   16.5421   21.9648 C   0  0  0  0  0  0  0  0  0  0  0  0
   10.4154   16.3484   23.3188 C   0  0  0  0  0  0  0  0  0  0  0  0
    8.9765   15.8080   23.1815 C   0  0  1  0  0  0  0  0  0  0  0  0
    7.8628   16.7445   22.6497 C   0  0  0  0  0  0  0  0  0  0  0  0
  1  2  1  0
  2  3  1  0
  3  4  2  0
  4  5  1  0
  5  6  2  0
  6  7  1  0
  7  8  2  0
  8  9  1  0
  9 10  1  0
 10 11  2  0
 10 12  1  0
 12 13  1  0
 13 14  1  0
 14 15  1  6
 15 16  1  0
 15 17  2  0
 14 18  1  0
 18 19  1  0
 19 20  1  0
 20 21  1  6
  8  3  1  0
 20 12  1  0
M  END
>  <alias>  (204) 
None

>  <Experiment code>  (204) 
nan

>  <CrystalformSites upload name>  (204) 
nan

>  <inchikey>  (204) 
VVIDWLPPPADVQU-YPMHNXCESA-N

>  <Crystalforms upload name>  (204) 
nan

>  <Quatassemblies upload name>  (204) 
nan

>  <ConformerSites alias>  (204) 
nan

>  <ConformerSites short tag>  (204) 
nan

>  <Crystalforms short tag>  (204) 
nan

>  <Centroid res>  (204) 
nan

>  <Quatassemblies short tag>  (204) 
nan

>  <observation_longname>  (204) 
nan

>  <name>  (204) 
VVIDWLPPPADVQU-YPMHNXCESA-N

>  <CanonSites upload name>  (204) 
nan

>  <tags>  (204) 
['iter2']

>  <energy_score>  (204) 
161.733397

>  <original SMILES>  (204) 
CSc1ccccc1CC(=O)N1C[C@@H](C(N)=O)CC[C@H]1C

>  <ref_mols>  (204) 
A4386a

>  <Pose>  (204) 
nan

>  <distance_score>  (204) 
0.652319

>  <ConformerSites upload name>  (204) 
nan

>  <HIPPO Pose ID>  (204) 
293334

>  <Crystalforms alias>  (204) 
nan

>  <original ID>  (204) 
VVIDWLPPPADVQU-YPMHNXCESA-N

>  <CanonSites alias>  (204) 
nan

>  <CrystalformSites alias>  (204) 
nan

>  <ref_pdb>  (204) 
A4386a

>  <CanonSites short tag>  (204) 
nan

>  <Quatassemblies alias>  (204) 
nan

>  <HIPPO Compound ID>  (204) 
122913

>  <CrystalformSites short tag>  (204) 
nan

$$$$
VWQRAZBSLICPHQ-OAHLLOKOSA-N
     RDKit          3D

 21 22  0  0  0  0  0  0  0  0999 V2000
    9.1953    9.1881   23.5874 C   0  0  0  0  0  0  0  0  0  0  0  0
    8.9987   10.9527   23.9584 S   0  0  0  0  0  0  0  0  0  0  0  0
    7.6218   11.0327   25.1090 C   0  0  0  0  0  0  0  0  0  0  0  0
    6.9702    9.8832   25.5736 C   0  0  0  0  0  0  0  0  0  0  0  0
    5.8848    9.9599   26.4522 C   0  0  0  0  0  0  0  0  0  0  0  0
    5.4308   11.1944   26.8897 C   0  0  0  0  0  0  0  0  0  0  0  0
    6.0685   12.3499   26.4534 C   0  0  0  0  0  0  0  0  0  0  0  0
    7.1706   12.2867   25.5763 C   0  0  0  0  0  0  0  0  0  0  0  0
    7.8339   13.5927   25.1982 C   0  0  0  0  0  0  0  0  0  0  0  0
    7.4820   14.1247   23.8043 C   0  0  0  0  0  0  0  0  0  0  0  0
    6.3443   14.1902   23.4240 O   0  0  0  0  0  0  0  0  0  0  0  0
    8.6942   14.5665   23.1885 N   0  0  0  0  0  0  0  0  0  0  0  0
    9.0088   15.9861   23.6160 C   0  0  0  0  0  0  0  0  0  0  0  0
   10.5165   16.2495   23.6765 C   0  0  0  0  0  0  0  0  0  0  0  0
   11.0218   16.4847   22.2718 C   0  0  0  0  0  0  0  0  0  0  0  0
   10.4190   15.3972   21.4143 C   0  0  2  0  0  0  0  0  0  0  0  0
   11.1196   14.2384   21.6799 F   0  0  0  0  0  0  0  0  0  0  0  0
   10.5234   15.7374   19.9189 C   0  0  0  0  0  0  0  0  0  0  0  0
   11.1239   14.6130   19.2450 N   0  0  0  0  0  0  0  0  0  0  0  0
   10.1734   16.8019   19.4992 O   0  0  0  0  0  0  0  0  0  0  0  0
    8.9499   15.1580   21.8070 C   0  0  0  0  0  0  0  0  0  0  0  0
  1  2  1  0
  2  3  1  0
  3  4  2  0
  4  5  1  0
  5  6  2  0
  6  7  1  0
  7  8  2  0
  8  9  1  0
  9 10  1  0
 10 11  2  0
 10 12  1  0
 12 13  1  0
 13 14  1  0
 14 15  1  0
 15 16  1  0
 16 17  1  6
 16 18  1  0
 18 19  1  0
 18 20  2  0
 16 21  1  0
  8  3  1  0
 21 12  1  0
M  END
>  <alias>  (205) 
None

>  <Experiment code>  (205) 
nan

>  <CrystalformSites upload name>  (205) 
nan

>  <inchikey>  (205) 
VWQRAZBSLICPHQ-OAHLLOKOSA-N

>  <Crystalforms upload name>  (205) 
nan

>  <Quatassemblies upload name>  (205) 
nan

>  <ConformerSites alias>  (205) 
nan

>  <ConformerSites short tag>  (205) 
nan

>  <Crystalforms short tag>  (205) 
nan

>  <Centroid res>  (205) 
nan

>  <Quatassemblies short tag>  (205) 
nan

>  <observation_longname>  (205) 
nan

>  <name>  (205) 
VWQRAZBSLICPHQ-OAHLLOKOSA-N

>  <CanonSites upload name>  (205) 
nan

>  <tags>  (205) 
['iter2']

>  <energy_score>  (205) 
127.484541

>  <original SMILES>  (205) 
CSc1ccccc1CC(=O)N1CCC[C@](F)(C(N)=O)C1

>  <ref_mols>  (205) 
A4386a

>  <Pose>  (205) 
nan

>  <distance_score>  (205) 
0.985518

>  <ConformerSites upload name>  (205) 
nan

>  <HIPPO Pose ID>  (205) 
293344

>  <Crystalforms alias>  (205) 
nan

>  <original ID>  (205) 
VWQRAZBSLICPHQ-OAHLLOKOSA-N

>  <CanonSites alias>  (205) 
nan

>  <CrystalformSites alias>  (205) 
nan

>  <ref_pdb>  (205) 
A4386a

>  <CanonSites short tag>  (205) 
nan

>  <Quatassemblies alias>  (205) 
nan

>  <HIPPO Compound ID>  (205) 
122914

>  <CrystalformSites short tag>  (205) 
nan

$$$$
VWQRAZBSLICPHQ-HNNXBMFYSA-N
     RDKit          3D

 21 22  0  0  0  0  0  0  0  0999 V2000
    9.1197    8.9776   23.7075 C   0  0  0  0  0  0  0  0  0  0  0  0
    9.1848   10.7702   23.9326 S   0  0  0  0  0  0  0  0  0  0  0  0
    7.8780   11.1576   25.0964 C   0  0  0  0  0  0  0  0  0  0  0  0
    6.9326   10.1966   25.4832 C   0  0  0  0  0  0  0  0  0  0  0  0
    5.8759   10.5142   26.3390 C   0  0  0  0  0  0  0  0  0  0  0  0
    5.7264   11.8151   26.7984 C   0  0  0  0  0  0  0  0  0  0  0  0
    6.6687   12.7807   26.4527 C   0  0  0  0  0  0  0  0  0  0  0  0
    7.7775   12.4595   25.6433 C   0  0  0  0  0  0  0  0  0  0  0  0
    8.8773   13.5012   25.5350 C   0  0  0  0  0  0  0  0  0  0  0  0
    8.7405   14.5821   24.4754 C   0  0  0  0  0  0  0  0  0  0  0  0
    8.4896   15.7088   24.8198 O   0  0  0  0  0  0  0  0  0  0  0  0
    9.0394   14.0521   23.1872 N   0  0  0  0  0  0  0  0  0  0  0  0
   10.5457   14.0770   22.9422 C   0  0  0  0  0  0  0  0  0  0  0  0
   11.2982   15.3811   23.2260 C   0  0  0  0  0  0  0  0  0  0  0  0
   10.6029   16.5603   22.5992 C   0  0  0  0  0  0  0  0  0  0  0  0
    9.6638   16.0844   21.5202 C   0  0  1  0  0  0  0  0  0  0  0  0
    8.6720   17.0290   21.4078 F   0  0  0  0  0  0  0  0  0  0  0  0
   10.4135   16.0140   20.1676 C   0  0  0  0  0  0  0  0  0  0  0  0
    9.9917   17.1299   19.3560 N   0  0  0  0  0  0  0  0  0  0  0  0
   11.1916   15.1327   19.9386 O   0  0  0  0  0  0  0  0  0  0  0  0
    9.0280   14.7066   21.8202 C   0  0  0  0  0  0  0  0  0  0  0  0
  1  2  1  0
  2  3  1  0
  3  4  2  0
  4  5  1  0
  5  6  2  0
  6  7  1  0
  7  8  2  0
  8  9  1  0
  9 10  1  0
 10 11  2  0
 10 12  1  0
 12 13  1  0
 13 14  1  0
 14 15  1  0
 15 16  1  0
 16 17  1  6
 16 18  1  0
 18 19  1  0
 18 20  2  0
 16 21  1  0
  8  3  1  0
 21 12  1  0
M  END
>  <alias>  (206) 
None

>  <Experiment code>  (206) 
nan

>  <CrystalformSites upload name>  (206) 
nan

>  <inchikey>  (206) 
VWQRAZBSLICPHQ-HNNXBMFYSA-N

>  <Crystalforms upload name>  (206) 
nan

>  <Quatassemblies upload name>  (206) 
nan

>  <ConformerSites alias>  (206) 
nan

>  <ConformerSites short tag>  (206) 
nan

>  <Crystalforms short tag>  (206) 
nan

>  <Centroid res>  (206) 
nan

>  <Quatassemblies short tag>  (206) 
nan

>  <observation_longname>  (206) 
nan

>  <name>  (206) 
VWQRAZBSLICPHQ-HNNXBMFYSA-N

>  <CanonSites upload name>  (206) 
nan

>  <tags>  (206) 
['iter2']

>  <energy_score>  (206) 
197.792273

>  <original SMILES>  (206) 
CSc1ccccc1CC(=O)N1CCC[C@@](F)(C(N)=O)C1

>  <ref_mols>  (206) 
A4386a

>  <Pose>  (206) 
nan

>  <distance_score>  (206) 
1.297701

>  <ConformerSites upload name>  (206) 
nan

>  <HIPPO Pose ID>  (206) 
293345

>  <Crystalforms alias>  (206) 
nan

>  <original ID>  (206) 
VWQRAZBSLICPHQ-HNNXBMFYSA-N

>  <CanonSites alias>  (206) 
nan

>  <CrystalformSites alias>  (206) 
nan

>  <ref_pdb>  (206) 
A4386a

>  <CanonSites short tag>  (206) 
nan

>  <Quatassemblies alias>  (206) 
nan

>  <HIPPO Compound ID>  (206) 
122914

>  <CrystalformSites short tag>  (206) 
nan

$$$$
KCUWPJSIVYQWJM-YPMHNXCESA-N
     RDKit          3D

 21 22  0  0  0  0  0  0  0  0999 V2000
    8.9398    9.4920   23.8701 C   0  0  0  0  0  0  0  0  0  0  0  0
    8.5515   11.2025   24.3392 S   0  0  0  0  0  0  0  0  0  0  0  0
    7.1233   11.0829   25.4296 C   0  0  0  0  0  0  0  0  0  0  0  0
    6.5714    9.8466   25.7837 C   0  0  0  0  0  0  0  0  0  0  0  0
    5.4648    9.7537   26.6349 C   0  0  0  0  0  0  0  0  0  0  0  0
    4.8750   10.8982   27.1449 C   0  0  0  0  0  0  0  0  0  0  0  0
    5.3996   12.1367   26.8105 C   0  0  0  0  0  0  0  0  0  0  0  0
    6.5357   12.2452   25.9828 C   0  0  0  0  0  0  0  0  0  0  0  0
    7.1335   13.6191   25.8589 C   0  0  0  0  0  0  0  0  0  0  0  0
    6.7942   14.4796   24.6421 C   0  0  0  0  0  0  0  0  0  0  0  0
    5.7444   15.0543   24.5378 O   0  0  0  0  0  0  0  0  0  0  0  0
    7.9551   14.5062   23.8098 N   0  0  0  0  0  0  0  0  0  0  0  0
    8.8972   15.5749   24.2747 C   0  0  0  0  0  0  0  0  0  0  0  0
   10.2977   14.9719   24.1692 C   0  0  2  0  0  0  0  0  0  0  0  0
   11.2267   15.5127   25.2201 C   0  0  0  0  0  0  0  0  0  0  0  0
   10.7561   15.2117   22.7508 C   0  0  0  0  0  0  0  0  0  0  0  0
    9.5865   14.8636   21.8191 C   0  0  2  0  0  0  0  0  0  0  0  0
    9.8396   15.6416   20.5206 C   0  0  0  0  0  0  0  0  0  0  0  0
   10.6447   14.8623   19.6071 N   0  0  0  0  0  0  0  0  0  0  0  0
    9.4369   16.7656   20.4399 O   0  0  0  0  0  0  0  0  0  0  0  0
    8.2022   15.1831   22.4574 C   0  0  0  0  0  0  0  0  0  0  0  0
  1  2  1  0
  2  3  1  0
  3  4  2  0
  4  5  1  0
  5  6  2  0
  6  7  1  0
  7  8  2  0
  8  9  1  0
  9 10  1  0
 10 11  2  0
 10 12  1  0
 12 13  1  0
 13 14  1  0
 14 15  1  1
 14 16  1  0
 16 17  1  0
 17 18  1  6
 18 19  1  0
 18 20  2  0
 17 21  1  0
  8  3  1  0
 21 12  1  0
M  END
>  <alias>  (207) 
None

>  <Experiment code>  (207) 
nan

>  <CrystalformSites upload name>  (207) 
nan

>  <inchikey>  (207) 
KCUWPJSIVYQWJM-YPMHNXCESA-N

>  <Crystalforms upload name>  (207) 
nan

>  <Quatassemblies upload name>  (207) 
nan

>  <ConformerSites alias>  (207) 
nan

>  <ConformerSites short tag>  (207) 
nan

>  <Crystalforms short tag>  (207) 
nan

>  <Centroid res>  (207) 
nan

>  <Quatassemblies short tag>  (207) 
nan

>  <observation_longname>  (207) 
nan

>  <name>  (207) 
KCUWPJSIVYQWJM-YPMHNXCESA-N

>  <CanonSites upload name>  (207) 
nan

>  <tags>  (207) 
['iter2']

>  <energy_score>  (207) 
182.914275

>  <original SMILES>  (207) 
CSc1ccccc1CC(=O)N1C[C@H](C)C[C@H](C(N)=O)C1

>  <ref_mols>  (207) 
A4386a

>  <Pose>  (207) 
nan

>  <distance_score>  (207) 
1.25739

>  <ConformerSites upload name>  (207) 
nan

>  <HIPPO Pose ID>  (207) 
293360

>  <Crystalforms alias>  (207) 
nan

>  <original ID>  (207) 
KCUWPJSIVYQWJM-YPMHNXCESA-N

>  <CanonSites alias>  (207) 
nan

>  <CrystalformSites alias>  (207) 
nan

>  <ref_pdb>  (207) 
A4386a

>  <CanonSites short tag>  (207) 
nan

>  <Quatassemblies alias>  (207) 
nan

>  <HIPPO Compound ID>  (207) 
122925

>  <CrystalformSites short tag>  (207) 
nan

$$$$
KCUWPJSIVYQWJM-AAEUAGOBSA-N
     RDKit          3D

 21 22  0  0  0  0  0  0  0  0999 V2000
    9.1655    9.1824   23.5931 C   0  0  0  0  0  0  0  0  0  0  0  0
    8.9538   10.9382   24.0013 S   0  0  0  0  0  0  0  0  0  0  0  0
    7.5711   10.9829   25.1494 C   0  0  0  0  0  0  0  0  0  0  0  0
    6.9209    9.8223   25.5822 C   0  0  0  0  0  0  0  0  0  0  0  0
    5.8279    9.8748   26.4544 C   0  0  0  0  0  0  0  0  0  0  0  0
    5.3639   11.0951   26.9186 C   0  0  0  0  0  0  0  0  0  0  0  0
    6.0013   12.2612   26.5167 C   0  0  0  0  0  0  0  0  0  0  0  0
    7.1122   12.2203   25.6497 C   0  0  0  0  0  0  0  0  0  0  0  0
    7.7838   13.5321   25.3271 C   0  0  0  0  0  0  0  0  0  0  0  0
    7.4065   14.1541   23.9813 C   0  0  0  0  0  0  0  0  0  0  0  0
    6.2605   14.3117   23.6585 O   0  0  0  0  0  0  0  0  0  0  0  0
    8.6183   14.5483   23.3312 N   0  0  0  0  0  0  0  0  0  0  0  0
    9.0440   15.9203   23.8124 C   0  0  0  0  0  0  0  0  0  0  0  0
   10.5737   16.0924   23.8584 C   0  0  1  0  0  0  0  0  0  0  0  0
   11.2831   14.9043   24.5188 C   0  0  0  0  0  0  0  0  0  0  0  0
   11.0454   16.3174   22.4358 C   0  0  0  0  0  0  0  0  0  0  0  0
   10.3213   15.3248   21.5382 C   0  0  2  0  0  0  0  0  0  0  0  0
   10.3817   15.7921   20.0745 C   0  0  0  0  0  0  0  0  0  0  0  0
   10.6829   14.6891   19.2035 N   0  0  0  0  0  0  0  0  0  0  0  0
   10.2174   16.9523   19.8340 O   0  0  0  0  0  0  0  0  0  0  0  0
    8.8516   15.1898   21.9747 C   0  0  0  0  0  0  0  0  0  0  0  0
  1  2  1  0
  2  3  1  0
  3  4  2  0
  4  5  1  0
  5  6  2  0
  6  7  1  0
  7  8  2  0
  8  9  1  0
  9 10  1  0
 10 11  2  0
 10 12  1  0
 12 13  1  0
 13 14  1  0
 14 15  1  6
 14 16  1  0
 16 17  1  0
 17 18  1  6
 18 19  1  0
 18 20  2  0
 17 21  1  0
  8  3  1  0
 21 12  1  0
M  END
>  <alias>  (208) 
None

>  <Experiment code>  (208) 
nan

>  <CrystalformSites upload name>  (208) 
nan

>  <inchikey>  (208) 
KCUWPJSIVYQWJM-AAEUAGOBSA-N

>  <Crystalforms upload name>  (208) 
nan

>  <Quatassemblies upload name>  (208) 
nan

>  <ConformerSites alias>  (208) 
nan

>  <ConformerSites short tag>  (208) 
nan

>  <Crystalforms short tag>  (208) 
nan

>  <Centroid res>  (208) 
nan

>  <Quatassemblies short tag>  (208) 
nan

>  <observation_longname>  (208) 
nan

>  <name>  (208) 
KCUWPJSIVYQWJM-AAEUAGOBSA-N

>  <CanonSites upload name>  (208) 
nan

>  <tags>  (208) 
['iter2']

>  <energy_score>  (208) 
178.218957

>  <original SMILES>  (208) 
CSc1ccccc1CC(=O)N1C[C@@H](C)C[C@H](C(N)=O)C1

>  <ref_mols>  (208) 
A4386a

>  <Pose>  (208) 
nan

>  <distance_score>  (208) 
0.693242

>  <ConformerSites upload name>  (208) 
nan

>  <HIPPO Pose ID>  (208) 
293361

>  <Crystalforms alias>  (208) 
nan

>  <original ID>  (208) 
KCUWPJSIVYQWJM-AAEUAGOBSA-N

>  <CanonSites alias>  (208) 
nan

>  <CrystalformSites alias>  (208) 
nan

>  <ref_pdb>  (208) 
A4386a

>  <CanonSites short tag>  (208) 
nan

>  <Quatassemblies alias>  (208) 
nan

>  <HIPPO Compound ID>  (208) 
122925

>  <CrystalformSites short tag>  (208) 
nan

$$$$
KCUWPJSIVYQWJM-YPMHNXCESA-N
     RDKit          3D

 21 22  0  0  0  0  0  0  0  0999 V2000
    9.0202    9.2824   23.7460 C   0  0  0  0  0  0  0  0  0  0  0  0
    8.7073   11.0078   24.2123 S   0  0  0  0  0  0  0  0  0  0  0  0
    7.2504   10.9516   25.2659 C   0  0  0  0  0  0  0  0  0  0  0  0
    6.7058    9.7444   25.7115 C   0  0  0  0  0  0  0  0  0  0  0  0
    5.5933    9.7072   26.5613 C   0  0  0  0  0  0  0  0  0  0  0  0
    4.9985   10.8793   26.9916 C   0  0  0  0  0  0  0  0  0  0  0  0
    5.5125   12.0897   26.5601 C   0  0  0  0  0  0  0  0  0  0  0  0
    6.6382   12.1427   25.7099 C   0  0  0  0  0  0  0  0  0  0  0  0
    7.1993   13.5081   25.4456 C   0  0  0  0  0  0  0  0  0  0  0  0
    7.1587   14.0804   24.0286 C   0  0  0  0  0  0  0  0  0  0  0  0
    6.1406   14.3205   23.4414 O   0  0  0  0  0  0  0  0  0  0  0  0
    8.5180   14.3263   23.6689 N   0  0  0  0  0  0  0  0  0  0  0  0
    8.9533   15.6698   24.1859 C   0  0  0  0  0  0  0  0  0  0  0  0
   10.3585   15.4272   24.7430 C   0  0  2  0  0  0  0  0  0  0  0  0
   10.6773   16.2697   25.9664 C   0  0  0  0  0  0  0  0  0  0  0  0
   11.2703   15.6181   23.5513 C   0  0  0  0  0  0  0  0  0  0  0  0
   10.6780   14.9025   22.3182 C   0  0  2  0  0  0  0  0  0  0  0  0
   11.1127   15.6341   21.0241 C   0  0  0  0  0  0  0  0  0  0  0  0
   11.0458   14.7675   19.8736 N   0  0  0  0  0  0  0  0  0  0  0  0
   11.4020   16.7930   21.1113 O   0  0  0  0  0  0  0  0  0  0  0  0
    9.1226   14.8662   22.3834 C   0  0  0  0  0  0  0  0  0  0  0  0
  1  2  1  0
  2  3  1  0
  3  4  2  0
  4  5  1  0
  5  6  2  0
  6  7  1  0
  7  8  2  0
  8  9  1  0
  9 10  1  0
 10 11  2  0
 10 12  1  0
 12 13  1  0
 13 14  1  0
 14 15  1  1
 14 16  1  0
 16 17  1  0
 17 18  1  6
 18 19  1  0
 18 20  2  0
 17 21  1  0
  8  3  1  0
 21 12  1  0
M  END
>  <alias>  (209) 
None

>  <Experiment code>  (209) 
nan

>  <CrystalformSites upload name>  (209) 
nan

>  <inchikey>  (209) 
KCUWPJSIVYQWJM-YPMHNXCESA-N

>  <Crystalforms upload name>  (209) 
nan

>  <Quatassemblies upload name>  (209) 
nan

>  <ConformerSites alias>  (209) 
nan

>  <ConformerSites short tag>  (209) 
nan

>  <Crystalforms short tag>  (209) 
nan

>  <Centroid res>  (209) 
nan

>  <Quatassemblies short tag>  (209) 
nan

>  <observation_longname>  (209) 
nan

>  <name>  (209) 
KCUWPJSIVYQWJM-YPMHNXCESA-N

>  <CanonSites upload name>  (209) 
nan

>  <tags>  (209) 
['iter2']

>  <energy_score>  (209) 
166.352794

>  <original SMILES>  (209) 
CSc1ccccc1CC(=O)N1C[C@H](C)C[C@H](C(N)=O)C1

>  <ref_mols>  (209) 
A4386a

>  <Pose>  (209) 
nan

>  <distance_score>  (209) 
1.178335

>  <ConformerSites upload name>  (209) 
nan

>  <HIPPO Pose ID>  (209) 
293362

>  <Crystalforms alias>  (209) 
nan

>  <original ID>  (209) 
KCUWPJSIVYQWJM-YPMHNXCESA-N

>  <CanonSites alias>  (209) 
nan

>  <CrystalformSites alias>  (209) 
nan

>  <ref_pdb>  (209) 
A4386a

>  <CanonSites short tag>  (209) 
nan

>  <Quatassemblies alias>  (209) 
nan

>  <HIPPO Compound ID>  (209) 
122925

>  <CrystalformSites short tag>  (209) 
nan

$$$$
KCUWPJSIVYQWJM-AAEUAGOBSA-N
     RDKit          3D

 21 22  0  0  0  0  0  0  0  0999 V2000
    9.1825    9.1547   23.5671 C   0  0  0  0  0  0  0  0  0  0  0  0
    9.0176   10.9135   23.9798 S   0  0  0  0  0  0  0  0  0  0  0  0
    7.6255   10.9966   25.1114 C   0  0  0  0  0  0  0  0  0  0  0  0
    6.9690    9.8498   25.5727 C   0  0  0  0  0  0  0  0  0  0  0  0
    5.8766    9.9298   26.4425 C   0  0  0  0  0  0  0  0  0  0  0  0
    5.4203   11.1653   26.8746 C   0  0  0  0  0  0  0  0  0  0  0  0
    6.0624   12.3188   26.4408 C   0  0  0  0  0  0  0  0  0  0  0  0
    7.1711   12.2513   25.5729 C   0  0  0  0  0  0  0  0  0  0  0  0
    7.8421   13.5529   25.1987 C   0  0  0  0  0  0  0  0  0  0  0  0
    7.5137   14.0787   23.7981 C   0  0  0  0  0  0  0  0  0  0  0  0
    6.3785   14.1809   23.4170 O   0  0  0  0  0  0  0  0  0  0  0  0
    8.7426   14.4678   23.1758 N   0  0  0  0  0  0  0  0  0  0  0  0
    9.1086   15.8782   23.5840 C   0  0  0  0  0  0  0  0  0  0  0  0
   10.6284   16.1084   23.6530 C   0  0  1  0  0  0  0  0  0  0  0  0
   11.3541   14.9811   24.3976 C   0  0  0  0  0  0  0  0  0  0  0  0
   11.1409   16.2707   22.2340 C   0  0  0  0  0  0  0  0  0  0  0  0
   10.4996   15.1933   21.3759 C   0  0  2  0  0  0  0  0  0  0  0  0
   10.5955   15.5643   19.8849 C   0  0  0  0  0  0  0  0  0  0  0  0
   11.9565   15.4481   19.4059 N   0  0  0  0  0  0  0  0  0  0  0  0
    9.5901   15.8679   19.3096 O   0  0  0  0  0  0  0  0  0  0  0  0
    9.0175   15.0280   21.7945 C   0  0  0  0  0  0  0  0  0  0  0  0
  1  2  1  0
  2  3  1  0
  3  4  2  0
  4  5  1  0
  5  6  2  0
  6  7  1  0
  7  8  2  0
  8  9  1  0
  9 10  1  0
 10 11  2  0
 10 12  1  0
 12 13  1  0
 13 14  1  0
 14 15  1  6
 14 16  1  0
 16 17  1  0
 17 18  1  6
 18 19  1  0
 18 20  2  0
 17 21  1  0
  8  3  1  0
 21 12  1  0
M  END
>  <alias>  (210) 
None

>  <Experiment code>  (210) 
nan

>  <CrystalformSites upload name>  (210) 
nan

>  <inchikey>  (210) 
KCUWPJSIVYQWJM-AAEUAGOBSA-N

>  <Crystalforms upload name>  (210) 
nan

>  <Quatassemblies upload name>  (210) 
nan

>  <ConformerSites alias>  (210) 
nan

>  <ConformerSites short tag>  (210) 
nan

>  <Crystalforms short tag>  (210) 
nan

>  <Centroid res>  (210) 
nan

>  <Quatassemblies short tag>  (210) 
nan

>  <observation_longname>  (210) 
nan

>  <name>  (210) 
KCUWPJSIVYQWJM-AAEUAGOBSA-N

>  <CanonSites upload name>  (210) 
nan

>  <tags>  (210) 
['iter2']

>  <energy_score>  (210) 
177.889393

>  <original SMILES>  (210) 
CSc1ccccc1CC(=O)N1C[C@@H](C)C[C@H](C(N)=O)C1

>  <ref_mols>  (210) 
A4386a

>  <Pose>  (210) 
nan

>  <distance_score>  (210) 
0.899102

>  <ConformerSites upload name>  (210) 
nan

>  <HIPPO Pose ID>  (210) 
293363

>  <Crystalforms alias>  (210) 
nan

>  <original ID>  (210) 
KCUWPJSIVYQWJM-AAEUAGOBSA-N

>  <CanonSites alias>  (210) 
nan

>  <CrystalformSites alias>  (210) 
nan

>  <ref_pdb>  (210) 
A4386a

>  <CanonSites short tag>  (210) 
nan

>  <Quatassemblies alias>  (210) 
nan

>  <HIPPO Compound ID>  (210) 
122925

>  <CrystalformSites short tag>  (210) 
nan

$$$$
NQQVRAIZECZCHX-OLZOCXBDSA-N
     RDKit          3D

 21 23  0  0  0  0  0  0  0  0999 V2000
    9.0633    9.4217   23.7608 C   0  0  0  0  0  0  0  0  0  0  0  0
    8.8164   11.1711   24.1821 S   0  0  0  0  0  0  0  0  0  0  0  0
    7.4849   11.1894   25.3892 C   0  0  0  0  0  0  0  0  0  0  0  0
    6.7800   10.0205   25.7133 C   0  0  0  0  0  0  0  0  0  0  0  0
    5.7134   10.0330   26.6164 C   0  0  0  0  0  0  0  0  0  0  0  0
    5.3229   11.2229   27.2110 C   0  0  0  0  0  0  0  0  0  0  0  0
    6.0152   12.3940   26.9202 C   0  0  0  0  0  0  0  0  0  0  0  0
    7.1118   12.3952   26.0331 C   0  0  0  0  0  0  0  0  0  0  0  0
    7.8344   13.7196   25.8430 C   0  0  0  0  0  0  0  0  0  0  0  0
    7.3206   14.5331   24.6609 C   0  0  0  0  0  0  0  0  0  0  0  0
    6.2149   15.0041   24.6613 O   0  0  0  0  0  0  0  0  0  0  0  0
    8.3167   14.5075   23.6427 N   0  0  0  0  0  0  0  0  0  0  0  0
    9.2414   15.7470   23.7668 C   0  0  0  0  0  0  0  0  0  0  0  0
   10.6569   15.5734   23.1486 C   0  0  1  0  0  0  0  0  0  0  0  0
   10.6626   14.2764   22.3563 C   0  0  0  0  0  0  0  0  0  0  0  0
    9.5639   14.7068   21.4010 C   0  0  1  0  0  0  0  0  0  0  0  0
    8.2674   14.9579   22.2138 C   0  0  0  0  0  0  0  0  0  0  0  0
   10.0653   15.9781   20.9403 N   0  0  0  0  0  0  0  0  0  0  0  0
   10.3561   16.1927   19.5441 C   0  0  0  0  0  0  0  0  0  0  0  0
   10.8344   16.5207   21.9722 C   0  0  0  0  0  0  0  0  0  0  0  0
   11.5763   17.4814   21.9373 O   0  0  0  0  0  0  0  0  0  0  0  0
  1  2  1  0
  2  3  1  0
  3  4  2  0
  4  5  1  0
  5  6  2  0
  6  7  1  0
  7  8  2  0
  8  9  1  0
  9 10  1  0
 10 11  2  0
 10 12  1  0
 12 13  1  0
 14 13  1  6
 14 15  1  0
 15 16  1  0
 16 17  1  1
 16 18  1  0
 18 19  1  0
 18 20  1  0
 20 21  2  0
  8  3  1  0
 17 12  1  0
 20 14  1  0
M  END
>  <alias>  (211) 
None

>  <Experiment code>  (211) 
nan

>  <CrystalformSites upload name>  (211) 
nan

>  <inchikey>  (211) 
NQQVRAIZECZCHX-OLZOCXBDSA-N

>  <Crystalforms upload name>  (211) 
nan

>  <Quatassemblies upload name>  (211) 
nan

>  <ConformerSites alias>  (211) 
nan

>  <ConformerSites short tag>  (211) 
nan

>  <Crystalforms short tag>  (211) 
nan

>  <Centroid res>  (211) 
nan

>  <Quatassemblies short tag>  (211) 
nan

>  <observation_longname>  (211) 
nan

>  <name>  (211) 
NQQVRAIZECZCHX-OLZOCXBDSA-N

>  <CanonSites upload name>  (211) 
nan

>  <tags>  (211) 
['iter2']

>  <energy_score>  (211) 
12.931641

>  <original SMILES>  (211) 
CSc1ccccc1CC(=O)N1C[C@H]2C[C@@H](C1)N(C)C2=O

>  <ref_mols>  (211) 
A4386a

>  <Pose>  (211) 
nan

>  <distance_score>  (211) 
1.269071

>  <ConformerSites upload name>  (211) 
nan

>  <HIPPO Pose ID>  (211) 
293378

>  <Crystalforms alias>  (211) 
nan

>  <original ID>  (211) 
NQQVRAIZECZCHX-OLZOCXBDSA-N

>  <CanonSites alias>  (211) 
nan

>  <CrystalformSites alias>  (211) 
nan

>  <ref_pdb>  (211) 
A4386a

>  <CanonSites short tag>  (211) 
nan

>  <Quatassemblies alias>  (211) 
nan

>  <HIPPO Compound ID>  (211) 
154895

>  <CrystalformSites short tag>  (211) 
nan

$$$$
PSAGHVQLKXCCTK-LBPRGKRZSA-N
     RDKit          3D

 22 23  0  0  0  0  0  0  0  0999 V2000
    9.1273    9.6913   23.7864 C   0  0  0  0  0  0  0  0  0  0  0  0
    8.7108   11.3695   24.1744 S   0  0  0  0  0  0  0  0  0  0  0  0
    8.0730   11.9330   23.0120 O   0  0  0  0  0  0  0  0  0  0  0  0
    9.8778   12.0019   24.7594 O   0  0  0  0  0  0  0  0  0  0  0  0
    7.4314   11.3688   25.4096 C   0  0  0  0  0  0  0  0  0  0  0  0
    6.8494   10.1582   25.8103 C   0  0  0  0  0  0  0  0  0  0  0  0
    5.7811   10.1581   26.7068 C   0  0  0  0  0  0  0  0  0  0  0  0
    5.2903   11.3616   27.2008 C   0  0  0  0  0  0  0  0  0  0  0  0
    5.8673   12.5690   26.8039 C   0  0  0  0  0  0  0  0  0  0  0  0
    6.9493   12.5992   25.9068 C   0  0  0  0  0  0  0  0  0  0  0  0
    7.5500   13.9480   25.5536 C   0  0  0  0  0  0  0  0  0  0  0  0
    7.2461   14.4792   24.1463 C   0  0  0  0  0  0  0  0  0  0  0  0
    6.1140   14.6634   23.7860 O   0  0  0  0  0  0  0  0  0  0  0  0
    8.4925   14.7288   23.4757 N   0  0  0  0  0  0  0  0  0  0  0  0
    8.9867   16.1081   23.8026 C   0  0  0  0  0  0  0  0  0  0  0  0
   10.5109   16.1687   23.8490 C   0  0  0  0  0  0  0  0  0  0  0  0
   11.0370   16.2386   22.4375 C   0  0  0  0  0  0  0  0  0  0  0  0
   10.2730   15.2243   21.5988 C   0  0  2  0  0  0  0  0  0  0  0  0
   10.4048   15.5881   20.0998 C   0  0  0  0  0  0  0  0  0  0  0  0
   11.7614   15.3851   19.6285 N   0  0  0  0  0  0  0  0  0  0  0  0
    9.4328   15.9874   19.5262 O   0  0  0  0  0  0  0  0  0  0  0  0
    8.7813   15.2006   22.0479 C   0  0  0  0  0  0  0  0  0  0  0  0
  1  2  1  0
  2  3  2  0
  2  4  2  0
  2  5  1  0
  5  6  2  0
  6  7  1  0
  7  8  2  0
  8  9  1  0
  9 10  2  0
 10 11  1  0
 11 12  1  0
 12 13  2  0
 12 14  1  0
 14 15  1  0
 15 16  1  0
 16 17  1  0
 17 18  1  0
 18 19  1  6
 19 20  1  0
 19 21  2  0
 18 22  1  0
 10  5  1  0
 22 14  1  0
M  END
>  <alias>  (212) 
None

>  <Experiment code>  (212) 
nan

>  <CrystalformSites upload name>  (212) 
nan

>  <inchikey>  (212) 
PSAGHVQLKXCCTK-LBPRGKRZSA-N

>  <Crystalforms upload name>  (212) 
nan

>  <Quatassemblies upload name>  (212) 
nan

>  <ConformerSites alias>  (212) 
nan

>  <ConformerSites short tag>  (212) 
nan

>  <Crystalforms short tag>  (212) 
nan

>  <Centroid res>  (212) 
nan

>  <Quatassemblies short tag>  (212) 
nan

>  <observation_longname>  (212) 
nan

>  <name>  (212) 
PSAGHVQLKXCCTK-LBPRGKRZSA-N

>  <CanonSites upload name>  (212) 
nan

>  <tags>  (212) 
['iter2']

>  <energy_score>  (212) 
58.912014

>  <original SMILES>  (212) 
CS(=O)(=O)c1ccccc1CC(=O)N1CCC[C@H](C(N)=O)C1

>  <ref_mols>  (212) 
A4386a

>  <Pose>  (212) 
nan

>  <distance_score>  (212) 
1.005299

>  <ConformerSites upload name>  (212) 
nan

>  <HIPPO Pose ID>  (212) 
294087

>  <Crystalforms alias>  (212) 
nan

>  <original ID>  (212) 
PSAGHVQLKXCCTK-LBPRGKRZSA-N

>  <CanonSites alias>  (212) 
nan

>  <CrystalformSites alias>  (212) 
nan

>  <ref_pdb>  (212) 
A4386a

>  <CanonSites short tag>  (212) 
nan

>  <Quatassemblies alias>  (212) 
nan

>  <HIPPO Compound ID>  (212) 
123317

>  <CrystalformSites short tag>  (212) 
nan

$$$$
PSAGHVQLKXCCTK-LBPRGKRZSA-N
     RDKit          3D

 22 23  0  0  0  0  0  0  0  0999 V2000
    9.0415    9.7828   23.8088 C   0  0  0  0  0  0  0  0  0  0  0  0
    8.5632   11.4338   24.2432 S   0  0  0  0  0  0  0  0  0  0  0  0
    9.7116   12.0591   24.8710 O   0  0  0  0  0  0  0  0  0  0  0  0
    7.9427   12.0212   23.0784 O   0  0  0  0  0  0  0  0  0  0  0  0
    7.2755   11.3372   25.4715 C   0  0  0  0  0  0  0  0  0  0  0  0
    6.7183   10.0921   25.7956 C   0  0  0  0  0  0  0  0  0  0  0  0
    5.6641   10.0083   26.7057 C   0  0  0  0  0  0  0  0  0  0  0  0
    5.1589   11.1616   27.2923 C   0  0  0  0  0  0  0  0  0  0  0  0
    5.7138   12.4014   26.9802 C   0  0  0  0  0  0  0  0  0  0  0  0
    6.7876   12.5141   26.0785 C   0  0  0  0  0  0  0  0  0  0  0  0
    7.3815   13.8897   25.8654 C   0  0  0  0  0  0  0  0  0  0  0  0
    7.0358   14.5849   24.5474 C   0  0  0  0  0  0  0  0  0  0  0  0
    5.9146   14.9503   24.3136 O   0  0  0  0  0  0  0  0  0  0  0  0
    8.2478   14.7613   23.8034 N   0  0  0  0  0  0  0  0  0  0  0  0
    8.9461   16.0211   24.2423 C   0  0  0  0  0  0  0  0  0  0  0  0
   10.4681   15.8876   24.1851 C   0  0  0  0  0  0  0  0  0  0  0  0
   10.9224   15.9513   22.7478 C   0  0  0  0  0  0  0  0  0  0  0  0
    9.9246   15.1916   21.8769 C   0  0  2  0  0  0  0  0  0  0  0  0
   10.0394   15.7592   20.4484 C   0  0  0  0  0  0  0  0  0  0  0  0
   10.6312   14.8046   19.5425 N   0  0  0  0  0  0  0  0  0  0  0  0
    9.7136   16.8994   20.2766 O   0  0  0  0  0  0  0  0  0  0  0  0
    8.4905   15.3681   22.4228 C   0  0  0  0  0  0  0  0  0  0  0  0
  1  2  1  0
  2  3  2  0
  2  4  2  0
  2  5  1  0
  5  6  2  0
  6  7  1  0
  7  8  2  0
  8  9  1  0
  9 10  2  0
 10 11  1  0
 11 12  1  0
 12 13  2  0
 12 14  1  0
 14 15  1  0
 15 16  1  0
 16 17  1  0
 17 18  1  0
 18 19  1  6
 19 20  1  0
 19 21  2  0
 18 22  1  0
 10  5  1  0
 22 14  1  0
M  END
>  <alias>  (213) 
None

>  <Experiment code>  (213) 
nan

>  <CrystalformSites upload name>  (213) 
nan

>  <inchikey>  (213) 
PSAGHVQLKXCCTK-LBPRGKRZSA-N

>  <Crystalforms upload name>  (213) 
nan

>  <Quatassemblies upload name>  (213) 
nan

>  <ConformerSites alias>  (213) 
nan

>  <ConformerSites short tag>  (213) 
nan

>  <Crystalforms short tag>  (213) 
nan

>  <Centroid res>  (213) 
nan

>  <Quatassemblies short tag>  (213) 
nan

>  <observation_longname>  (213) 
nan

>  <name>  (213) 
PSAGHVQLKXCCTK-LBPRGKRZSA-N

>  <CanonSites upload name>  (213) 
nan

>  <tags>  (213) 
['iter2']

>  <energy_score>  (213) 
142.008155

>  <original SMILES>  (213) 
CS(=O)(=O)c1ccccc1CC(=O)N1CCC[C@H](C(N)=O)C1

>  <ref_mols>  (213) 
A4386a

>  <Pose>  (213) 
nan

>  <distance_score>  (213) 
1.151657

>  <ConformerSites upload name>  (213) 
nan

>  <HIPPO Pose ID>  (213) 
294088

>  <Crystalforms alias>  (213) 
nan

>  <original ID>  (213) 
PSAGHVQLKXCCTK-LBPRGKRZSA-N

>  <CanonSites alias>  (213) 
nan

>  <CrystalformSites alias>  (213) 
nan

>  <ref_pdb>  (213) 
A4386a

>  <CanonSites short tag>  (213) 
nan

>  <Quatassemblies alias>  (213) 
nan

>  <HIPPO Compound ID>  (213) 
123317

>  <CrystalformSites short tag>  (213) 
nan

$$$$
WTYHUVHWKOLYLP-NEPJUHHUSA-N
     RDKit          3D

 22 24  0  0  0  0  0  0  0  0999 V2000
    9.0703    9.6735   23.6317 C   0  0  0  0  0  0  0  0  0  0  0  0
    8.9111   11.3929   24.0326 S   0  0  0  0  0  0  0  0  0  0  0  0
    8.2368   12.0797   22.9589 O   0  0  0  0  0  0  0  0  0  0  0  0
   10.2116   11.8326   24.4987 O   0  0  0  0  0  0  0  0  0  0  0  0
    7.7465   11.5647   25.3661 C   0  0  0  0  0  0  0  0  0  0  0  0
    6.9423   10.4772   25.7354 C   0  0  0  0  0  0  0  0  0  0  0  0
    5.8842   10.6661   26.6232 C   0  0  0  0  0  0  0  0  0  0  0  0
    5.6182   11.9375   27.1249 C   0  0  0  0  0  0  0  0  0  0  0  0
    6.4295   13.0189   26.7716 C   0  0  0  0  0  0  0  0  0  0  0  0
    7.5208   12.8514   25.9039 C   0  0  0  0  0  0  0  0  0  0  0  0
    8.4776   14.0063   25.7072 C   0  0  0  0  0  0  0  0  0  0  0  0
    8.0691   15.2233   24.8917 C   0  0  0  0  0  0  0  0  0  0  0  0
    7.3037   16.0086   25.3919 O   0  0  0  0  0  0  0  0  0  0  0  0
    8.7751   15.2735   23.6383 N   0  0  0  0  0  0  0  0  0  0  0  0
   10.1185   15.9193   23.8307 C   0  0  0  0  0  0  0  0  0  0  0  0
   11.2225   15.6763   22.7613 C   0  0  2  0  0  0  0  0  0  0  0  0
   11.0922   16.9020   21.8951 C   0  0  0  0  0  0  0  0  0  0  0  0
    9.7367   16.5188   21.3312 C   0  0  2  0  0  0  0  0  0  0  0  0
    8.6932   16.2989   22.4688 C   0  0  0  0  0  0  0  0  0  0  0  0
   10.1806   15.2105   20.7811 C   0  0  0  0  0  0  0  0  0  0  0  0
   10.1060   14.8628   19.6218 O   0  0  0  0  0  0  0  0  0  0  0  0
   10.9034   14.6229   21.8186 N   0  0  0  0  0  0  0  0  0  0  0  0
  1  2  1  0
  2  3  2  0
  2  4  2  0
  2  5  1  0
  5  6  2  0
  6  7  1  0
  7  8  2  0
  8  9  1  0
  9 10  2  0
 10 11  1  0
 11 12  1  0
 12 13  2  0
 12 14  1  0
 14 15  1  0
 16 15  1  1
 16 17  1  0
 17 18  1  0
 18 19  1  1
 18 20  1  0
 20 21  2  0
 20 22  1  0
 10  5  1  0
 19 14  1  0
 22 16  1  0
M  END
>  <alias>  (214) 
None

>  <Experiment code>  (214) 
nan

>  <CrystalformSites upload name>  (214) 
nan

>  <inchikey>  (214) 
WTYHUVHWKOLYLP-NEPJUHHUSA-N

>  <Crystalforms upload name>  (214) 
nan

>  <Quatassemblies upload name>  (214) 
nan

>  <ConformerSites alias>  (214) 
nan

>  <ConformerSites short tag>  (214) 
nan

>  <Crystalforms short tag>  (214) 
nan

>  <Centroid res>  (214) 
nan

>  <Quatassemblies short tag>  (214) 
nan

>  <observation_longname>  (214) 
nan

>  <name>  (214) 
WTYHUVHWKOLYLP-NEPJUHHUSA-N

>  <CanonSites upload name>  (214) 
nan

>  <tags>  (214) 
['iter2']

>  <energy_score>  (214) 
-18.869295

>  <original SMILES>  (214) 
CS(=O)(=O)c1ccccc1CC(=O)N1C[C@@H]2C[C@H](C1)C(=O)N2

>  <ref_mols>  (214) 
A4386a

>  <Pose>  (214) 
nan

>  <distance_score>  (214) 
1.538564

>  <ConformerSites upload name>  (214) 
nan

>  <HIPPO Pose ID>  (214) 
294093

>  <Crystalforms alias>  (214) 
nan

>  <original ID>  (214) 
WTYHUVHWKOLYLP-NEPJUHHUSA-N

>  <CanonSites alias>  (214) 
nan

>  <CrystalformSites alias>  (214) 
nan

>  <ref_pdb>  (214) 
A4386a

>  <CanonSites short tag>  (214) 
nan

>  <Quatassemblies alias>  (214) 
nan

>  <HIPPO Compound ID>  (214) 
123327

>  <CrystalformSites short tag>  (214) 
nan

$$$$
WTYHUVHWKOLYLP-NWDGAFQWSA-N
     RDKit          3D

 22 24  0  0  0  0  0  0  0  0999 V2000
    9.0485    9.7929   23.8980 C   0  0  0  0  0  0  0  0  0  0  0  0
    8.5838   11.4623   24.2661 S   0  0  0  0  0  0  0  0  0  0  0  0
    7.9599   11.9928   23.0774 O   0  0  0  0  0  0  0  0  0  0  0  0
    9.7296   12.1149   24.8698 O   0  0  0  0  0  0  0  0  0  0  0  0
    7.2961   11.4368   25.4944 C   0  0  0  0  0  0  0  0  0  0  0  0
    6.7290   10.2103   25.8726 C   0  0  0  0  0  0  0  0  0  0  0  0
    5.6805   10.1748   26.7910 C   0  0  0  0  0  0  0  0  0  0  0  0
    5.1922   11.3591   27.3300 C   0  0  0  0  0  0  0  0  0  0  0  0
    5.7533   12.5818   26.9581 C   0  0  0  0  0  0  0  0  0  0  0  0
    6.8199   12.6488   26.0436 C   0  0  0  0  0  0  0  0  0  0  0  0
    7.3867   14.0214   25.7181 C   0  0  0  0  0  0  0  0  0  0  0  0
    6.9254   14.6155   24.3840 C   0  0  0  0  0  0  0  0  0  0  0  0
    5.7642   14.8555   24.1855 O   0  0  0  0  0  0  0  0  0  0  0  0
    8.0638   14.7531   23.5278 N   0  0  0  0  0  0  0  0  0  0  0  0
    8.6906   16.1350   23.7042 C   0  0  0  0  0  0  0  0  0  0  0  0
   10.1746   16.3012   23.2310 C   0  0  1  0  0  0  0  0  0  0  0  0
   10.5987   15.0029   22.5709 C   0  0  0  0  0  0  0  0  0  0  0  0
    9.5813   15.0933   21.4394 C   0  0  1  0  0  0  0  0  0  0  0  0
    8.1605   15.1374   22.0593 C   0  0  0  0  0  0  0  0  0  0  0  0
    9.8664   16.4951   20.9535 C   0  0  0  0  0  0  0  0  0  0  0  0
    9.7366   16.9361   19.8310 O   0  0  0  0  0  0  0  0  0  0  0  0
   10.2393   17.1925   22.0961 N   0  0  0  0  0  0  0  0  0  0  0  0
  1  2  1  0
  2  3  2  0
  2  4  2  0
  2  5  1  0
  5  6  2  0
  6  7  1  0
  7  8  2  0
  8  9  1  0
  9 10  2  0
 10 11  1  0
 11 12  1  0
 12 13  2  0
 12 14  1  0
 14 15  1  0
 16 15  1  6
 16 17  1  0
 17 18  1  0
 18 19  1  1
 18 20  1  0
 20 21  2  0
 20 22  1  0
 10  5  1  0
 19 14  1  0
 22 16  1  0
M  END
>  <alias>  (215) 
None

>  <Experiment code>  (215) 
nan

>  <CrystalformSites upload name>  (215) 
nan

>  <inchikey>  (215) 
WTYHUVHWKOLYLP-NWDGAFQWSA-N

>  <Crystalforms upload name>  (215) 
nan

>  <Quatassemblies upload name>  (215) 
nan

>  <ConformerSites alias>  (215) 
nan

>  <ConformerSites short tag>  (215) 
nan

>  <Crystalforms short tag>  (215) 
nan

>  <Centroid res>  (215) 
nan

>  <Quatassemblies short tag>  (215) 
nan

>  <observation_longname>  (215) 
nan

>  <name>  (215) 
WTYHUVHWKOLYLP-NWDGAFQWSA-N

>  <CanonSites upload name>  (215) 
nan

>  <tags>  (215) 
['iter2']

>  <energy_score>  (215) 
-23.446668

>  <original SMILES>  (215) 
CS(=O)(=O)c1ccccc1CC(=O)N1C[C@H]2C[C@@H](C1)C(=O)N2

>  <ref_mols>  (215) 
A4386a

>  <Pose>  (215) 
nan

>  <distance_score>  (215) 
1.512356

>  <ConformerSites upload name>  (215) 
nan

>  <HIPPO Pose ID>  (215) 
294094

>  <Crystalforms alias>  (215) 
nan

>  <original ID>  (215) 
WTYHUVHWKOLYLP-NWDGAFQWSA-N

>  <CanonSites alias>  (215) 
nan

>  <CrystalformSites alias>  (215) 
nan

>  <ref_pdb>  (215) 
A4386a

>  <CanonSites short tag>  (215) 
nan

>  <Quatassemblies alias>  (215) 
nan

>  <HIPPO Compound ID>  (215) 
123327

>  <CrystalformSites short tag>  (215) 
nan

$$$$
JXKWTIAEYKUFKO-WBMJQRKESA-N
     RDKit          3D

 22 24  0  0  0  0  0  0  0  0999 V2000
   11.2606   14.5270   19.2864 N   0  0  0  0  0  0  0  0  0  0  0  0
   10.6635   15.8180   19.5075 C   0  0  0  0  0  0  0  0  0  0  0  0
   10.5751   16.7727   18.7841 O   0  0  0  0  0  0  0  0  0  0  0  0
   10.1313   16.0513   20.9723 C   0  0  2  0  0  0  0  0  0  0  0  0
    9.6637   17.4170   21.0288 O   0  0  0  0  0  0  0  0  0  0  0  0
   11.1840   15.9448   22.0594 C   0  0  0  0  0  0  0  0  0  0  0  0
   10.4596   16.1652   23.3861 C   0  0  0  0  0  0  0  0  0  0  0  0
    8.9593   15.8244   23.2479 C   0  0  0  0  0  0  0  0  0  0  0  0
    8.8259   14.4184   22.7004 N   0  0  0  0  0  0  0  0  0  0  0  0
    7.7135   13.7501   23.3156 C   0  0  0  0  0  0  0  0  0  0  0  0
    6.5618   13.6849   22.9817 O   0  0  0  0  0  0  0  0  0  0  0  0
    8.1932   13.1293   24.6552 C   0  0  2  0  0  0  0  0  0  0  0  0
    9.4223   12.2461   24.4641 C   0  0  0  0  0  0  0  0  0  0  0  0
    9.0973   10.8948   23.8645 C   0  0  0  0  0  0  0  0  0  0  0  0
    8.0287    9.8771   24.8912 S   0  0  0  0  0  0  0  0  0  0  0  0
    6.9645   11.0849   25.6338 C   0  0  0  0  0  0  0  0  0  0  0  0
    5.9510   10.5649   26.4572 C   0  0  0  0  0  0  0  0  0  0  0  0
    5.0682   11.4072   27.1271 C   0  0  0  0  0  0  0  0  0  0  0  0
    5.1812   12.7814   26.9692 C   0  0  0  0  0  0  0  0  0  0  0  0
    6.1838   13.3084   26.1543 C   0  0  0  0  0  0  0  0  0  0  0  0
    7.0985   12.4722   25.4833 C   0  0  0  0  0  0  0  0  0  0  0  0
    8.9280   15.1609   21.3731 C   0  0  0  0  0  0  0  0  0  0  0  0
  1  2  1  0
  2  3  2  0
  2  4  1  0
  4  5  1  6
  4  6  1  0
  6  7  1  0
  7  8  1  0
  8  9  1  0
  9 10  1  0
 10 11  2  0
 12 10  1  6
 12 13  1  0
 13 14  1  0
 14 15  1  0
 15 16  1  0
 16 17  2  0
 17 18  1  0
 18 19  2  0
 19 20  1  0
 20 21  2  0
  9 22  1  0
 22  4  1  0
 21 12  1  0
 21 16  1  0
M  END
>  <alias>  (216) 
None

>  <Experiment code>  (216) 
nan

>  <CrystalformSites upload name>  (216) 
nan

>  <inchikey>  (216) 
JXKWTIAEYKUFKO-WBMJQRKESA-N

>  <Crystalforms upload name>  (216) 
nan

>  <Quatassemblies upload name>  (216) 
nan

>  <ConformerSites alias>  (216) 
nan

>  <ConformerSites short tag>  (216) 
nan

>  <Crystalforms short tag>  (216) 
nan

>  <Centroid res>  (216) 
nan

>  <Quatassemblies short tag>  (216) 
nan

>  <observation_longname>  (216) 
nan

>  <name>  (216) 
JXKWTIAEYKUFKO-WBMJQRKESA-N

>  <CanonSites upload name>  (216) 
nan

>  <tags>  (216) 
['iter2']

>  <energy_score>  (216) 
57.902313

>  <original SMILES>  (216) 
NC(=O)[C@]1(O)CCCN(C(=O)[C@@H]2CCSc3ccccc32)C1

>  <ref_mols>  (216) 
A4386a

>  <Pose>  (216) 
nan

>  <distance_score>  (216) 
1.230855

>  <ConformerSites upload name>  (216) 
nan

>  <HIPPO Pose ID>  (216) 
294335

>  <Crystalforms alias>  (216) 
nan

>  <original ID>  (216) 
JXKWTIAEYKUFKO-WBMJQRKESA-N

>  <CanonSites alias>  (216) 
nan

>  <CrystalformSites alias>  (216) 
nan

>  <ref_pdb>  (216) 
A4386a

>  <CanonSites short tag>  (216) 
nan

>  <Quatassemblies alias>  (216) 
nan

>  <HIPPO Compound ID>  (216) 
123011

>  <CrystalformSites short tag>  (216) 
nan

$$$$
JXKWTIAEYKUFKO-MLGOLLRUSA-N
     RDKit          3D

 22 24  0  0  0  0  0  0  0  0999 V2000
    9.3024   18.5488   20.8588 N   0  0  0  0  0  0  0  0  0  0  0  0
    9.5534   17.1793   20.4436 C   0  0  0  0  0  0  0  0  0  0  0  0
    9.6669   16.7020   19.3430 O   0  0  0  0  0  0  0  0  0  0  0  0
    9.7357   16.1513   21.6119 C   0  0  1  0  0  0  0  0  0  0  0  0
    9.8283   14.8338   21.0396 O   0  0  0  0  0  0  0  0  0  0  0  0
   11.0455   16.3894   22.3378 C   0  0  0  0  0  0  0  0  0  0  0  0
   11.0224   15.5458   23.5948 C   0  0  0  0  0  0  0  0  0  0  0  0
    9.6435   15.6570   24.2515 C   0  0  0  0  0  0  0  0  0  0  0  0
    8.5617   14.8669   23.5483 N   0  0  0  0  0  0  0  0  0  0  0  0
    7.5886   14.4164   24.4952 C   0  0  0  0  0  0  0  0  0  0  0  0
    6.5731   14.9320   24.8736 O   0  0  0  0  0  0  0  0  0  0  0  0
    8.0471   12.9800   24.9710 C   0  0  2  0  0  0  0  0  0  0  0  0
    8.3878   12.1716   23.7055 C   0  0  0  0  0  0  0  0  0  0  0  0
    8.9599   10.8023   23.9585 C   0  0  0  0  0  0  0  0  0  0  0  0
    7.8299    9.7172   24.8287 S   0  0  0  0  0  0  0  0  0  0  0  0
    6.8875   10.8467   25.8283 C   0  0  0  0  0  0  0  0  0  0  0  0
    5.9298   10.2254   26.6522 C   0  0  0  0  0  0  0  0  0  0  0  0
    5.1928   10.9523   27.5796 C   0  0  0  0  0  0  0  0  0  0  0  0
    5.4178   12.3127   27.7029 C   0  0  0  0  0  0  0  0  0  0  0  0
    6.3498   12.9425   26.8747 C   0  0  0  0  0  0  0  0  0  0  0  0
    7.0650   12.2401   25.8822 C   0  0  0  0  0  0  0  0  0  0  0  0
    8.5693   16.0874   22.6306 C   0  0  0  0  0  0  0  0  0  0  0  0
  1  2  1  0
  2  3  2  0
  2  4  1  0
  4  5  1  6
  4  6  1  0
  6  7  1  0
  7  8  1  0
  8  9  1  0
  9 10  1  0
 10 11  2  0
 12 10  1  6
 12 13  1  0
 13 14  1  0
 14 15  1  0
 15 16  1  0
 16 17  2  0
 17 18  1  0
 18 19  2  0
 19 20  1  0
 20 21  2  0
  9 22  1  0
 22  4  1  0
 21 12  1  0
 21 16  1  0
M  END
>  <alias>  (217) 
None

>  <Experiment code>  (217) 
nan

>  <CrystalformSites upload name>  (217) 
nan

>  <inchikey>  (217) 
JXKWTIAEYKUFKO-MLGOLLRUSA-N

>  <Crystalforms upload name>  (217) 
nan

>  <Quatassemblies upload name>  (217) 
nan

>  <ConformerSites alias>  (217) 
nan

>  <ConformerSites short tag>  (217) 
nan

>  <Crystalforms short tag>  (217) 
nan

>  <Centroid res>  (217) 
nan

>  <Quatassemblies short tag>  (217) 
nan

>  <observation_longname>  (217) 
nan

>  <name>  (217) 
JXKWTIAEYKUFKO-MLGOLLRUSA-N

>  <CanonSites upload name>  (217) 
nan

>  <tags>  (217) 
['iter2']

>  <energy_score>  (217) 
92.281952

>  <original SMILES>  (217) 
NC(=O)[C@@]1(O)CCCN(C(=O)[C@@H]2CCSc3ccccc32)C1

>  <ref_mols>  (217) 
A4386a

>  <Pose>  (217) 
nan

>  <distance_score>  (217) 
1.674272

>  <ConformerSites upload name>  (217) 
nan

>  <HIPPO Pose ID>  (217) 
294336

>  <Crystalforms alias>  (217) 
nan

>  <original ID>  (217) 
JXKWTIAEYKUFKO-MLGOLLRUSA-N

>  <CanonSites alias>  (217) 
nan

>  <CrystalformSites alias>  (217) 
nan

>  <ref_pdb>  (217) 
A4386a

>  <CanonSites short tag>  (217) 
nan

>  <Quatassemblies alias>  (217) 
nan

>  <HIPPO Compound ID>  (217) 
123011

>  <CrystalformSites short tag>  (217) 
nan

$$$$
JXKWTIAEYKUFKO-WBMJQRKESA-N
     RDKit          3D

 22 24  0  0  0  0  0  0  0  0999 V2000
   11.2733   14.5340   19.2781 N   0  0  0  0  0  0  0  0  0  0  0  0
   10.6675   15.8217   19.4961 C   0  0  0  0  0  0  0  0  0  0  0  0
   10.5588   16.7684   18.7649 O   0  0  0  0  0  0  0  0  0  0  0  0
   10.1418   16.0585   20.9626 C   0  0  2  0  0  0  0  0  0  0  0  0
    9.6695   17.4224   21.0135 O   0  0  0  0  0  0  0  0  0  0  0  0
   11.1946   15.9586   22.0495 C   0  0  0  0  0  0  0  0  0  0  0  0
   10.4691   16.1779   23.3760 C   0  0  0  0  0  0  0  0  0  0  0  0
    8.9697   15.8318   23.2392 C   0  0  0  0  0  0  0  0  0  0  0  0
    8.8424   14.4237   22.6941 N   0  0  0  0  0  0  0  0  0  0  0  0
    7.7329   13.7519   23.3102 C   0  0  0  0  0  0  0  0  0  0  0  0
    6.5817   13.6812   22.9762 O   0  0  0  0  0  0  0  0  0  0  0  0
    8.2159   13.1313   24.6485 C   0  0  2  0  0  0  0  0  0  0  0  0
    9.4465   12.2522   24.4489 C   0  0  0  0  0  0  0  0  0  0  0  0
    9.1174   10.9054   23.8424 C   0  0  0  0  0  0  0  0  0  0  0  0
    8.0683    9.8739   24.8743 S   0  0  0  0  0  0  0  0  0  0  0  0
    6.9949   11.0749   25.6181 C   0  0  0  0  0  0  0  0  0  0  0  0
    5.9809   10.5476   26.4363 C   0  0  0  0  0  0  0  0  0  0  0  0
    5.0948   11.3842   27.1089 C   0  0  0  0  0  0  0  0  0  0  0  0
    5.2047   12.7596   26.9589 C   0  0  0  0  0  0  0  0  0  0  0  0
    6.2068   13.2937   26.1482 C   0  0  0  0  0  0  0  0  0  0  0  0
    7.1247   12.4639   25.4739 C   0  0  0  0  0  0  0  0  0  0  0  0
    8.9416   15.1643   21.3655 C   0  0  0  0  0  0  0  0  0  0  0  0
  1  2  1  0
  2  3  2  0
  2  4  1  0
  4  5  1  6
  4  6  1  0
  6  7  1  0
  7  8  1  0
  8  9  1  0
  9 10  1  0
 10 11  2  0
 12 10  1  6
 12 13  1  0
 13 14  1  0
 14 15  1  0
 15 16  1  0
 16 17  2  0
 17 18  1  0
 18 19  2  0
 19 20  1  0
 20 21  2  0
  9 22  1  0
 22  4  1  0
 21 12  1  0
 21 16  1  0
M  END
>  <alias>  (218) 
None

>  <Experiment code>  (218) 
nan

>  <CrystalformSites upload name>  (218) 
nan

>  <inchikey>  (218) 
JXKWTIAEYKUFKO-WBMJQRKESA-N

>  <Crystalforms upload name>  (218) 
nan

>  <Quatassemblies upload name>  (218) 
nan

>  <ConformerSites alias>  (218) 
nan

>  <ConformerSites short tag>  (218) 
nan

>  <Crystalforms short tag>  (218) 
nan

>  <Centroid res>  (218) 
nan

>  <Quatassemblies short tag>  (218) 
nan

>  <observation_longname>  (218) 
nan

>  <name>  (218) 
JXKWTIAEYKUFKO-WBMJQRKESA-N

>  <CanonSites upload name>  (218) 
nan

>  <tags>  (218) 
['iter2']

>  <energy_score>  (218) 
55.237002

>  <original SMILES>  (218) 
NC(=O)[C@]1(O)CCCN(C(=O)[C@@H]2CCSc3ccccc32)C1

>  <ref_mols>  (218) 
A4386a

>  <Pose>  (218) 
nan

>  <distance_score>  (218) 
1.216874

>  <ConformerSites upload name>  (218) 
nan

>  <HIPPO Pose ID>  (218) 
294337

>  <Crystalforms alias>  (218) 
nan

>  <original ID>  (218) 
JXKWTIAEYKUFKO-WBMJQRKESA-N

>  <CanonSites alias>  (218) 
nan

>  <CrystalformSites alias>  (218) 
nan

>  <ref_pdb>  (218) 
A4386a

>  <CanonSites short tag>  (218) 
nan

>  <Quatassemblies alias>  (218) 
nan

>  <HIPPO Compound ID>  (218) 
123011

>  <CrystalformSites short tag>  (218) 
nan

$$$$
JXKWTIAEYKUFKO-MLGOLLRUSA-N
     RDKit          3D

 22 24  0  0  0  0  0  0  0  0999 V2000
    9.8903   16.6617   18.9527 N   0  0  0  0  0  0  0  0  0  0  0  0
    9.6941   17.0965   20.3188 C   0  0  0  0  0  0  0  0  0  0  0  0
    9.4363   18.1776   20.7641 O   0  0  0  0  0  0  0  0  0  0  0  0
    9.9831   15.9139   21.2618 C   0  0  1  0  0  0  0  0  0  0  0  0
   10.0234   14.7435   20.4291 O   0  0  0  0  0  0  0  0  0  0  0  0
   11.3406   16.1009   21.9137 C   0  0  0  0  0  0  0  0  0  0  0  0
   11.3583   15.2727   23.1801 C   0  0  0  0  0  0  0  0  0  0  0  0
   10.0199   15.4316   23.9103 C   0  0  0  0  0  0  0  0  0  0  0  0
    8.8838   14.6463   23.2742 N   0  0  0  0  0  0  0  0  0  0  0  0
    7.9419   14.2397   24.2788 C   0  0  0  0  0  0  0  0  0  0  0  0
    6.9565   14.7884   24.6898 O   0  0  0  0  0  0  0  0  0  0  0  0
    8.3654   12.8126   24.8232 C   0  0  2  0  0  0  0  0  0  0  0  0
    8.6849   11.9450   23.5977 C   0  0  0  0  0  0  0  0  0  0  0  0
    9.1347   10.5352   23.8778 C   0  0  0  0  0  0  0  0  0  0  0  0
    7.9078    9.5623   24.7408 S   0  0  0  0  0  0  0  0  0  0  0  0
    7.0503   10.7747   25.7137 C   0  0  0  0  0  0  0  0  0  0  0  0
    6.0398   10.2388   26.5363 C   0  0  0  0  0  0  0  0  0  0  0  0
    5.3453   11.0329   27.4410 C   0  0  0  0  0  0  0  0  0  0  0  0
    5.6704   12.3737   27.5465 C   0  0  0  0  0  0  0  0  0  0  0  0
    6.6588   12.9173   26.7220 C   0  0  0  0  0  0  0  0  0  0  0  0
    7.3326   12.1500   25.7465 C   0  0  0  0  0  0  0  0  0  0  0  0
    8.8751   15.8407   22.3324 C   0  0  0  0  0  0  0  0  0  0  0  0
  1  2  1  0
  2  3  2  0
  2  4  1  0
  4  5  1  6
  4  6  1  0
  6  7  1  0
  7  8  1  0
  8  9  1  0
  9 10  1  0
 10 11  2  0
 12 10  1  6
 12 13  1  0
 13 14  1  0
 14 15  1  0
 15 16  1  0
 16 17  2  0
 17 18  1  0
 18 19  2  0
 19 20  1  0
 20 21  2  0
  9 22  1  0
 22  4  1  0
 21 12  1  0
 21 16  1  0
M  END
>  <alias>  (219) 
None

>  <Experiment code>  (219) 
nan

>  <CrystalformSites upload name>  (219) 
nan

>  <inchikey>  (219) 
JXKWTIAEYKUFKO-MLGOLLRUSA-N

>  <Crystalforms upload name>  (219) 
nan

>  <Quatassemblies upload name>  (219) 
nan

>  <ConformerSites alias>  (219) 
nan

>  <ConformerSites short tag>  (219) 
nan

>  <Crystalforms short tag>  (219) 
nan

>  <Centroid res>  (219) 
nan

>  <Quatassemblies short tag>  (219) 
nan

>  <observation_longname>  (219) 
nan

>  <name>  (219) 
JXKWTIAEYKUFKO-MLGOLLRUSA-N

>  <CanonSites upload name>  (219) 
nan

>  <tags>  (219) 
['iter2']

>  <energy_score>  (219) 
82.670164

>  <original SMILES>  (219) 
NC(=O)[C@@]1(O)CCCN(C(=O)[C@@H]2CCSc3ccccc32)C1

>  <ref_mols>  (219) 
A4386a

>  <Pose>  (219) 
nan

>  <distance_score>  (219) 
1.324319

>  <ConformerSites upload name>  (219) 
nan

>  <HIPPO Pose ID>  (219) 
294338

>  <Crystalforms alias>  (219) 
nan

>  <original ID>  (219) 
JXKWTIAEYKUFKO-MLGOLLRUSA-N

>  <CanonSites alias>  (219) 
nan

>  <CrystalformSites alias>  (219) 
nan

>  <ref_pdb>  (219) 
A4386a

>  <CanonSites short tag>  (219) 
nan

>  <Quatassemblies alias>  (219) 
nan

>  <HIPPO Compound ID>  (219) 
123011

>  <CrystalformSites short tag>  (219) 
nan

$$$$
BHXXNDRDFMGLNO-GXTWGEPZSA-N
     RDKit          3D

 22 24  0  0  0  0  0  0  0  0999 V2000
   11.1058   15.5387   18.7539 C   0  0  0  0  0  0  0  0  0  0  0  0
   10.6923   15.3351   20.0945 N   0  0  0  0  0  0  0  0  0  0  0  0
    9.8269   16.0953   20.9303 C   0  0  0  0  0  0  0  0  0  0  0  0
    9.2866   17.1428   20.7458 O   0  0  0  0  0  0  0  0  0  0  0  0
    9.7148   15.4263   22.2831 C   0  0  1  0  0  0  0  0  0  0  0  0
   10.6878   16.1141   23.2276 C   0  0  0  0  0  0  0  0  0  0  0  0
   10.2581   15.8593   24.6533 C   0  0  0  0  0  0  0  0  0  0  0  0
    8.7270   15.8037   24.7492 C   0  0  0  0  0  0  0  0  0  0  0  0
    8.1358   14.6021   24.0161 N   0  0  0  0  0  0  0  0  0  0  0  0
    6.9655   14.1381   24.6948 C   0  0  0  0  0  0  0  0  0  0  0  0
    5.8123   14.4350   24.5517 O   0  0  0  0  0  0  0  0  0  0  0  0
    7.4560   13.0997   25.7428 C   0  0  2  0  0  0  0  0  0  0  0  0
    8.6676   12.2815   25.2557 C   0  0  0  0  0  0  0  0  0  0  0  0
    8.2863   11.2211   24.2545 C   0  0  0  0  0  0  0  0  0  0  0  0
    7.4505    9.8885   25.1354 S   0  0  0  0  0  0  0  0  0  0  0  0
    6.3270   10.8209   26.1616 C   0  0  0  0  0  0  0  0  0  0  0  0
    5.3790   10.0653   26.8665 C   0  0  0  0  0  0  0  0  0  0  0  0
    4.4733   10.6737   27.7321 C   0  0  0  0  0  0  0  0  0  0  0  0
    4.4894   12.0527   27.8856 C   0  0  0  0  0  0  0  0  0  0  0  0
    5.4323   12.8153   27.1991 C   0  0  0  0  0  0  0  0  0  0  0  0
    6.3770   12.2139   26.3451 C   0  0  0  0  0  0  0  0  0  0  0  0
    8.2874   15.5232   22.8333 C   0  0  0  0  0  0  0  0  0  0  0  0
  1  2  1  0
  2  3  1  0
  3  4  2  0
  5  3  1  6
  5  6  1  0
  6  7  1  0
  7  8  1  0
  8  9  1  0
  9 10  1  0
 10 11  2  0
 12 10  1  6
 12 13  1  0
 13 14  1  0
 14 15  1  0
 15 16  1  0
 16 17  2  0
 17 18  1  0
 18 19  2  0
 19 20  1  0
 20 21  2  0
  9 22  1  0
 22  5  1  0
 21 12  1  0
 21 16  1  0
M  END
>  <alias>  (220) 
None

>  <Experiment code>  (220) 
nan

>  <CrystalformSites upload name>  (220) 
nan

>  <inchikey>  (220) 
BHXXNDRDFMGLNO-GXTWGEPZSA-N

>  <Crystalforms upload name>  (220) 
nan

>  <Quatassemblies upload name>  (220) 
nan

>  <ConformerSites alias>  (220) 
nan

>  <ConformerSites short tag>  (220) 
nan

>  <Crystalforms short tag>  (220) 
nan

>  <Centroid res>  (220) 
nan

>  <Quatassemblies short tag>  (220) 
nan

>  <observation_longname>  (220) 
nan

>  <name>  (220) 
BHXXNDRDFMGLNO-GXTWGEPZSA-N

>  <CanonSites upload name>  (220) 
nan

>  <tags>  (220) 
['iter2']

>  <energy_score>  (220) 
13.202239

>  <original SMILES>  (220) 
CNC(=O)[C@H]1CCCN(C(=O)[C@@H]2CCSc3ccccc32)C1

>  <ref_mols>  (220) 
A4386a

>  <Pose>  (220) 
nan

>  <distance_score>  (220) 
1.78509

>  <ConformerSites upload name>  (220) 
nan

>  <HIPPO Pose ID>  (220) 
294343

>  <Crystalforms alias>  (220) 
nan

>  <original ID>  (220) 
BHXXNDRDFMGLNO-GXTWGEPZSA-N

>  <CanonSites alias>  (220) 
nan

>  <CrystalformSites alias>  (220) 
nan

>  <ref_pdb>  (220) 
A4386a

>  <CanonSites short tag>  (220) 
nan

>  <Quatassemblies alias>  (220) 
nan

>  <HIPPO Compound ID>  (220) 
122996

>  <CrystalformSites short tag>  (220) 
nan

$$$$
BHXXNDRDFMGLNO-TZMCWYRMSA-N
     RDKit          3D

 22 24  0  0  0  0  0  0  0  0999 V2000
   10.8416   15.3788   19.0880 C   0  0  0  0  0  0  0  0  0  0  0  0
   10.1904   15.9853   20.2099 N   0  0  0  0  0  0  0  0  0  0  0  0
    9.2612   15.4443   21.1685 C   0  0  0  0  0  0  0  0  0  0  0  0
    8.7343   14.3717   21.2269 O   0  0  0  0  0  0  0  0  0  0  0  0
    9.0589   16.4663   22.2873 C   0  0  2  0  0  0  0  0  0  0  0  0
   10.3453   16.5050   23.1114 C   0  0  0  0  0  0  0  0  0  0  0  0
   10.1182   16.1639   24.5656 C   0  0  0  0  0  0  0  0  0  0  0  0
    8.6332   16.0952   24.9150 C   0  0  0  0  0  0  0  0  0  0  0  0
    7.9099   15.0331   24.1136 N   0  0  0  0  0  0  0  0  0  0  0  0
    6.9154   14.4003   24.9203 C   0  0  0  0  0  0  0  0  0  0  0  0
    5.7546   14.6672   25.0809 O   0  0  0  0  0  0  0  0  0  0  0  0
    7.6109   13.2588   25.7300 C   0  0  2  0  0  0  0  0  0  0  0  0
    8.8235   12.6233   25.0217 C   0  0  0  0  0  0  0  0  0  0  0  0
    8.4234   11.6011   23.9863 C   0  0  0  0  0  0  0  0  0  0  0  0
    7.8326   10.1252   24.8387 S   0  0  0  0  0  0  0  0  0  0  0  0
    6.6674   10.8669   25.9646 C   0  0  0  0  0  0  0  0  0  0  0  0
    5.7685    9.9851   26.5814 C   0  0  0  0  0  0  0  0  0  0  0  0
    4.8683   10.4251   27.5480 C   0  0  0  0  0  0  0  0  0  0  0  0
    4.8434   11.7660   27.8980 C   0  0  0  0  0  0  0  0  0  0  0  0
    5.7244   12.6563   27.2858 C   0  0  0  0  0  0  0  0  0  0  0  0
    6.6497   12.2270   26.3114 C   0  0  0  0  0  0  0  0  0  0  0  0
    7.8003   16.1631   23.1227 C   0  0  0  0  0  0  0  0  0  0  0  0
  1  2  1  0
  2  3  1  0
  3  4  2  0
  5  3  1  6
  5  6  1  0
  6  7  1  0
  7  8  1  0
  8  9  1  0
  9 10  1  0
 10 11  2  0
 12 10  1  6
 12 13  1  0
 13 14  1  0
 14 15  1  0
 15 16  1  0
 16 17  2  0
 17 18  1  0
 18 19  2  0
 19 20  1  0
 20 21  2  0
  9 22  1  0
 22  5  1  0
 21 12  1  0
 21 16  1  0
M  END
>  <alias>  (221) 
None

>  <Experiment code>  (221) 
nan

>  <CrystalformSites upload name>  (221) 
nan

>  <inchikey>  (221) 
BHXXNDRDFMGLNO-TZMCWYRMSA-N

>  <Crystalforms upload name>  (221) 
nan

>  <Quatassemblies upload name>  (221) 
nan

>  <ConformerSites alias>  (221) 
nan

>  <ConformerSites short tag>  (221) 
nan

>  <Crystalforms short tag>  (221) 
nan

>  <Centroid res>  (221) 
nan

>  <Quatassemblies short tag>  (221) 
nan

>  <observation_longname>  (221) 
nan

>  <name>  (221) 
BHXXNDRDFMGLNO-TZMCWYRMSA-N

>  <CanonSites upload name>  (221) 
nan

>  <tags>  (221) 
['iter2']

>  <energy_score>  (221) 
-4.51898

>  <original SMILES>  (221) 
CNC(=O)[C@@H]1CCCN(C(=O)[C@@H]2CCSc3ccccc32)C1

>  <ref_mols>  (221) 
A4386a

>  <Pose>  (221) 
nan

>  <distance_score>  (221) 
1.975637

>  <ConformerSites upload name>  (221) 
nan

>  <HIPPO Pose ID>  (221) 
294344

>  <Crystalforms alias>  (221) 
nan

>  <original ID>  (221) 
BHXXNDRDFMGLNO-TZMCWYRMSA-N

>  <CanonSites alias>  (221) 
nan

>  <CrystalformSites alias>  (221) 
nan

>  <ref_pdb>  (221) 
A4386a

>  <CanonSites short tag>  (221) 
nan

>  <Quatassemblies alias>  (221) 
nan

>  <HIPPO Compound ID>  (221) 
122996

>  <CrystalformSites short tag>  (221) 
nan

$$$$
BHXXNDRDFMGLNO-GXTWGEPZSA-N
     RDKit          3D

 22 24  0  0  0  0  0  0  0  0999 V2000
   11.0433   15.5897   18.7887 C   0  0  0  0  0  0  0  0  0  0  0  0
   10.6739   15.3425   20.1367 N   0  0  0  0  0  0  0  0  0  0  0  0
    9.8922   16.1137   21.0506 C   0  0  0  0  0  0  0  0  0  0  0  0
    9.4132   17.2014   20.9423 O   0  0  0  0  0  0  0  0  0  0  0  0
    9.8025   15.3696   22.3664 C   0  0  1  0  0  0  0  0  0  0  0  0
   10.9214   15.8285   23.2814 C   0  0  0  0  0  0  0  0  0  0  0  0
   10.6205   15.3158   24.6720 C   0  0  0  0  0  0  0  0  0  0  0  0
    9.1153   15.4143   24.9571 C   0  0  0  0  0  0  0  0  0  0  0  0
    8.2641   14.4908   24.0911 N   0  0  0  0  0  0  0  0  0  0  0  0
    7.0936   14.0854   24.8075 C   0  0  0  0  0  0  0  0  0  0  0  0
    6.0017   14.5788   24.8596 O   0  0  0  0  0  0  0  0  0  0  0  0
    7.4707   12.7323   25.4800 C   0  0  2  0  0  0  0  0  0  0  0  0
    7.8159   11.7755   24.3229 C   0  0  0  0  0  0  0  0  0  0  0  0
    8.1557   10.3725   24.7418 C   0  0  0  0  0  0  0  0  0  0  0  0
    6.7614    9.5596   25.5166 S   0  0  0  0  0  0  0  0  0  0  0  0
    6.1092   10.8397   26.5527 C   0  0  0  0  0  0  0  0  0  0  0  0
    5.1984   10.3978   27.5264 C   0  0  0  0  0  0  0  0  0  0  0  0
    4.6439   11.2852   28.4415 C   0  0  0  0  0  0  0  0  0  0  0  0
    5.0001   12.6250   28.3938 C   0  0  0  0  0  0  0  0  0  0  0  0
    5.9031   13.0728   27.4291 C   0  0  0  0  0  0  0  0  0  0  0  0
    6.4570   12.1966   26.4756 C   0  0  0  0  0  0  0  0  0  0  0  0
    8.4705   15.5975   23.0869 C   0  0  0  0  0  0  0  0  0  0  0  0
  1  2  1  0
  2  3  1  0
  3  4  2  0
  5  3  1  6
  5  6  1  0
  6  7  1  0
  7  8  1  0
  8  9  1  0
  9 10  1  0
 10 11  2  0
 12 10  1  6
 12 13  1  0
 13 14  1  0
 14 15  1  0
 15 16  1  0
 16 17  2  0
 17 18  1  0
 18 19  2  0
 19 20  1  0
 20 21  2  0
  9 22  1  0
 22  5  1  0
 21 12  1  0
 21 16  1  0
M  END
>  <alias>  (222) 
None

>  <Experiment code>  (222) 
nan

>  <CrystalformSites upload name>  (222) 
nan

>  <inchikey>  (222) 
BHXXNDRDFMGLNO-GXTWGEPZSA-N

>  <Crystalforms upload name>  (222) 
nan

>  <Quatassemblies upload name>  (222) 
nan

>  <ConformerSites alias>  (222) 
nan

>  <ConformerSites short tag>  (222) 
nan

>  <Crystalforms short tag>  (222) 
nan

>  <Centroid res>  (222) 
nan

>  <Quatassemblies short tag>  (222) 
nan

>  <observation_longname>  (222) 
nan

>  <name>  (222) 
BHXXNDRDFMGLNO-GXTWGEPZSA-N

>  <CanonSites upload name>  (222) 
nan

>  <tags>  (222) 
['iter2']

>  <energy_score>  (222) 
-14.446212

>  <original SMILES>  (222) 
CNC(=O)[C@H]1CCCN(C(=O)[C@@H]2CCSc3ccccc32)C1

>  <ref_mols>  (222) 
A4386a

>  <Pose>  (222) 
nan

>  <distance_score>  (222) 
1.976105

>  <ConformerSites upload name>  (222) 
nan

>  <HIPPO Pose ID>  (222) 
294345

>  <Crystalforms alias>  (222) 
nan

>  <original ID>  (222) 
BHXXNDRDFMGLNO-GXTWGEPZSA-N

>  <CanonSites alias>  (222) 
nan

>  <CrystalformSites alias>  (222) 
nan

>  <ref_pdb>  (222) 
A4386a

>  <CanonSites short tag>  (222) 
nan

>  <Quatassemblies alias>  (222) 
nan

>  <HIPPO Compound ID>  (222) 
122996

>  <CrystalformSites short tag>  (222) 
nan

$$$$
ZTGZMPJKZODOKZ-MBNYWOFBSA-N
     RDKit          3D

 22 24  0  0  0  0  0  0  0  0999 V2000
   11.5927   15.2575   24.7124 C   0  0  0  0  0  0  0  0  0  0  0  0
   10.5336   15.1567   23.6476 C   0  0  2  0  0  0  0  0  0  0  0  0
   10.7383   16.0861   22.4707 C   0  0  0  0  0  0  0  0  0  0  0  0
    9.4577   15.9903   21.6475 C   0  0  2  0  0  0  0  0  0  0  0  0
    9.4750   17.0022   20.4892 C   0  0  0  0  0  0  0  0  0  0  0  0
    9.3247   18.3818   20.9000 N   0  0  0  0  0  0  0  0  0  0  0  0
    9.6354   16.5245   19.3990 O   0  0  0  0  0  0  0  0  0  0  0  0
    8.1912   15.9661   22.5509 C   0  0  0  0  0  0  0  0  0  0  0  0
    8.0937   14.7562   23.4951 N   0  0  0  0  0  0  0  0  0  0  0  0
    7.0566   14.3598   24.4106 C   0  0  0  0  0  0  0  0  0  0  0  0
    6.0464   14.9217   24.7338 O   0  0  0  0  0  0  0  0  0  0  0  0
    7.5412   12.9937   25.0600 C   0  0  2  0  0  0  0  0  0  0  0  0
    7.9804   12.0769   23.9113 C   0  0  0  0  0  0  0  0  0  0  0  0
    8.5431   10.7463   24.3237 C   0  0  0  0  0  0  0  0  0  0  0  0
    7.3559    9.7303   25.1968 S   0  0  0  0  0  0  0  0  0  0  0  0
    6.4419   10.9297   26.1366 C   0  0  0  0  0  0  0  0  0  0  0  0
    5.5459   10.3681   27.0650 C   0  0  0  0  0  0  0  0  0  0  0  0
    4.8236   11.1696   27.9404 C   0  0  0  0  0  0  0  0  0  0  0  0
    4.9984   12.5436   27.9016 C   0  0  0  0  0  0  0  0  0  0  0  0
    5.8746   13.1109   26.9736 C   0  0  0  0  0  0  0  0  0  0  0  0
    6.5815   12.3260   26.0415 C   0  0  0  0  0  0  0  0  0  0  0  0
    9.1622   15.5093   24.2258 C   0  0  0  0  0  0  0  0  0  0  0  0
  2  1  1  1
  2  3  1  0
  3  4  1  0
  4  5  1  6
  5  6  1  0
  5  7  2  0
  4  8  1  0
  8  9  1  0
  9 10  1  0
 10 11  2  0
 12 10  1  6
 12 13  1  0
 13 14  1  0
 14 15  1  0
 15 16  1  0
 16 17  2  0
 17 18  1  0
 18 19  2  0
 19 20  1  0
 20 21  2  0
  9 22  1  0
 22  2  1  0
 21 12  1  0
 21 16  1  0
M  END
>  <alias>  (223) 
None

>  <Experiment code>  (223) 
nan

>  <CrystalformSites upload name>  (223) 
nan

>  <inchikey>  (223) 
ZTGZMPJKZODOKZ-MBNYWOFBSA-N

>  <Crystalforms upload name>  (223) 
nan

>  <Quatassemblies upload name>  (223) 
nan

>  <ConformerSites alias>  (223) 
nan

>  <ConformerSites short tag>  (223) 
nan

>  <Crystalforms short tag>  (223) 
nan

>  <Centroid res>  (223) 
nan

>  <Quatassemblies short tag>  (223) 
nan

>  <observation_longname>  (223) 
nan

>  <name>  (223) 
ZTGZMPJKZODOKZ-MBNYWOFBSA-N

>  <CanonSites upload name>  (223) 
nan

>  <tags>  (223) 
['iter2']

>  <energy_score>  (223) 
133.05229

>  <original SMILES>  (223) 
C[C@@H]1C[C@H](C(N)=O)CN(C(=O)[C@@H]2CCSc3ccccc32)C1

>  <ref_mols>  (223) 
A4386a

>  <Pose>  (223) 
nan

>  <distance_score>  (223) 
1.890917

>  <ConformerSites upload name>  (223) 
nan

>  <HIPPO Pose ID>  (223) 
294346

>  <Crystalforms alias>  (223) 
nan

>  <original ID>  (223) 
ZTGZMPJKZODOKZ-MBNYWOFBSA-N

>  <CanonSites alias>  (223) 
nan

>  <CrystalformSites alias>  (223) 
nan

>  <ref_pdb>  (223) 
A4386a

>  <CanonSites short tag>  (223) 
nan

>  <Quatassemblies alias>  (223) 
nan

>  <HIPPO Compound ID>  (223) 
123149

>  <CrystalformSites short tag>  (223) 
nan

$$$$
ZTGZMPJKZODOKZ-SGMGOOAPSA-N
     RDKit          3D

 22 24  0  0  0  0  0  0  0  0999 V2000
   11.6338   14.6391   24.3511 C   0  0  0  0  0  0  0  0  0  0  0  0
   10.7924   15.7955   23.8014 C   0  0  1  0  0  0  0  0  0  0  0  0
   11.2287   16.2015   22.3937 C   0  0  0  0  0  0  0  0  0  0  0  0
   10.5631   15.2665   21.4012 C   0  0  2  0  0  0  0  0  0  0  0  0
   10.6395   15.7783   19.9561 C   0  0  0  0  0  0  0  0  0  0  0  0
   11.9681   15.5853   19.4148 N   0  0  0  0  0  0  0  0  0  0  0  0
    9.6475   16.2165   19.4488 O   0  0  0  0  0  0  0  0  0  0  0  0
    9.1036   15.0931   21.8504 C   0  0  0  0  0  0  0  0  0  0  0  0
    8.9635   14.1555   23.0200 N   0  0  0  0  0  0  0  0  0  0  0  0
    7.8103   13.5273   23.5765 C   0  0  0  0  0  0  0  0  0  0  0  0
    6.6475   13.6567   23.3105 O   0  0  0  0  0  0  0  0  0  0  0  0
    8.3106   12.4671   24.6062 C   0  0  2  0  0  0  0  0  0  0  0  0
    8.8492   11.3507   23.7003 C   0  0  0  0  0  0  0  0  0  0  0  0
    9.0006    9.9540   24.2243 C   0  0  0  0  0  0  0  0  0  0  0  0
    7.5373    9.3413   25.0538 S   0  0  0  0  0  0  0  0  0  0  0  0
    6.8597   10.7625   25.8510 C   0  0  0  0  0  0  0  0  0  0  0  0
    5.8415   10.4902   26.7825 C   0  0  0  0  0  0  0  0  0  0  0  0
    5.2349   11.5118   27.5064 C   0  0  0  0  0  0  0  0  0  0  0  0
    5.6383   12.8223   27.3016 C   0  0  0  0  0  0  0  0  0  0  0  0
    6.6366   13.1031   26.3685 C   0  0  0  0  0  0  0  0  0  0  0  0
    7.2513   12.0811   25.6147 C   0  0  0  0  0  0  0  0  0  0  0  0
    9.2950   15.4223   23.7951 C   0  0  0  0  0  0  0  0  0  0  0  0
  2  1  1  6
  2  3  1  0
  3  4  1  0
  4  5  1  6
  5  6  1  0
  5  7  2  0
  4  8  1  0
  8  9  1  0
  9 10  1  0
 10 11  2  0
 12 10  1  6
 12 13  1  0
 13 14  1  0
 14 15  1  0
 15 16  1  0
 16 17  2  0
 17 18  1  0
 18 19  2  0
 19 20  1  0
 20 21  2  0
  9 22  1  0
 22  2  1  0
 21 12  1  0
 21 16  1  0
M  END
>  <alias>  (224) 
None

>  <Experiment code>  (224) 
nan

>  <CrystalformSites upload name>  (224) 
nan

>  <inchikey>  (224) 
ZTGZMPJKZODOKZ-SGMGOOAPSA-N

>  <Crystalforms upload name>  (224) 
nan

>  <Quatassemblies upload name>  (224) 
nan

>  <ConformerSites alias>  (224) 
nan

>  <ConformerSites short tag>  (224) 
nan

>  <Crystalforms short tag>  (224) 
nan

>  <Centroid res>  (224) 
nan

>  <Quatassemblies short tag>  (224) 
nan

>  <observation_longname>  (224) 
nan

>  <name>  (224) 
ZTGZMPJKZODOKZ-SGMGOOAPSA-N

>  <CanonSites upload name>  (224) 
nan

>  <tags>  (224) 
['iter2']

>  <energy_score>  (224) 
88.456357

>  <original SMILES>  (224) 
C[C@H]1C[C@H](C(N)=O)CN(C(=O)[C@@H]2CCSc3ccccc32)C1

>  <ref_mols>  (224) 
A4386a

>  <Pose>  (224) 
nan

>  <distance_score>  (224) 
1.250587

>  <ConformerSites upload name>  (224) 
nan

>  <HIPPO Pose ID>  (224) 
294347

>  <Crystalforms alias>  (224) 
nan

>  <original ID>  (224) 
ZTGZMPJKZODOKZ-SGMGOOAPSA-N

>  <CanonSites alias>  (224) 
nan

>  <CrystalformSites alias>  (224) 
nan

>  <ref_pdb>  (224) 
A4386a

>  <CanonSites short tag>  (224) 
nan

>  <Quatassemblies alias>  (224) 
nan

>  <HIPPO Compound ID>  (224) 
123149

>  <CrystalformSites short tag>  (224) 
nan

$$$$
ZTGZMPJKZODOKZ-YRGRVCCFSA-N
     RDKit          3D

 22 24  0  0  0  0  0  0  0  0999 V2000
   11.7115   15.2725   24.4973 C   0  0  0  0  0  0  0  0  0  0  0  0
   10.8628   15.0430   23.2751 C   0  0  2  0  0  0  0  0  0  0  0  0
   11.1969   15.8974   22.0749 C   0  0  0  0  0  0  0  0  0  0  0  0
    9.9317   16.0827   21.2295 C   0  0  1  0  0  0  0  0  0  0  0  0
   10.2118   15.9518   19.7158 C   0  0  0  0  0  0  0  0  0  0  0  0
   10.6696   14.6486   19.3218 N   0  0  0  0  0  0  0  0  0  0  0  0
   10.0897   16.9598   19.0812 O   0  0  0  0  0  0  0  0  0  0  0  0
    8.6344   15.3895   21.7680 C   0  0  0  0  0  0  0  0  0  0  0  0
    8.6378   14.2754   22.8257 N   0  0  0  0  0  0  0  0  0  0  0  0
    7.5733   13.7439   23.6305 C   0  0  0  0  0  0  0  0  0  0  0  0
    6.4322   14.0969   23.7439 O   0  0  0  0  0  0  0  0  0  0  0  0
    8.1805   12.5759   24.5241 C   0  0  2  0  0  0  0  0  0  0  0  0
    8.7495   11.5510   23.5492 C   0  0  0  0  0  0  0  0  0  0  0  0
    9.1045   10.1748   24.0308 C   0  0  0  0  0  0  0  0  0  0  0  0
    7.7588    9.3605   24.8821 S   0  0  0  0  0  0  0  0  0  0  0  0
    6.9391   10.6773   25.7320 C   0  0  0  0  0  0  0  0  0  0  0  0
    5.9617   10.2671   26.6575 C   0  0  0  0  0  0  0  0  0  0  0  0
    5.2879   11.1869   27.4545 C   0  0  0  0  0  0  0  0  0  0  0  0
    5.5871   12.5340   27.3353 C   0  0  0  0  0  0  0  0  0  0  0  0
    6.5361   12.9524   26.4019 C   0  0  0  0  0  0  0  0  0  0  0  0
    7.2005   12.0386   25.5550 C   0  0  0  0  0  0  0  0  0  0  0  0
    9.3944   15.2962   23.5938 C   0  0  0  0  0  0  0  0  0  0  0  0
  2  1  1  1
  2  3  1  0
  3  4  1  0
  4  5  1  6
  5  6  1  0
  5  7  2  0
  4  8  1  0
  8  9  1  0
  9 10  1  0
 10 11  2  0
 12 10  1  6
 12 13  1  0
 13 14  1  0
 14 15  1  0
 15 16  1  0
 16 17  2  0
 17 18  1  0
 18 19  2  0
 19 20  1  0
 20 21  2  0
  9 22  1  0
 22  2  1  0
 21 12  1  0
 21 16  1  0
M  END
>  <alias>  (225) 
None

>  <Experiment code>  (225) 
nan

>  <CrystalformSites upload name>  (225) 
nan

>  <inchikey>  (225) 
ZTGZMPJKZODOKZ-YRGRVCCFSA-N

>  <Crystalforms upload name>  (225) 
nan

>  <Quatassemblies upload name>  (225) 
nan

>  <ConformerSites alias>  (225) 
nan

>  <ConformerSites short tag>  (225) 
nan

>  <Crystalforms short tag>  (225) 
nan

>  <Centroid res>  (225) 
nan

>  <Quatassemblies short tag>  (225) 
nan

>  <observation_longname>  (225) 
nan

>  <name>  (225) 
ZTGZMPJKZODOKZ-YRGRVCCFSA-N

>  <CanonSites upload name>  (225) 
nan

>  <tags>  (225) 
['iter2']

>  <energy_score>  (225) 
130.876044

>  <original SMILES>  (225) 
C[C@@H]1C[C@@H](C(N)=O)CN(C(=O)[C@@H]2CCSc3ccccc32)C1

>  <ref_mols>  (225) 
A4386a

>  <Pose>  (225) 
nan

>  <distance_score>  (225) 
1.144041

>  <ConformerSites upload name>  (225) 
nan

>  <HIPPO Pose ID>  (225) 
294348

>  <Crystalforms alias>  (225) 
nan

>  <original ID>  (225) 
ZTGZMPJKZODOKZ-YRGRVCCFSA-N

>  <CanonSites alias>  (225) 
nan

>  <CrystalformSites alias>  (225) 
nan

>  <ref_pdb>  (225) 
A4386a

>  <CanonSites short tag>  (225) 
nan

>  <Quatassemblies alias>  (225) 
nan

>  <HIPPO Compound ID>  (225) 
123149

>  <CrystalformSites short tag>  (225) 
nan

$$$$
ZTGZMPJKZODOKZ-MBNYWOFBSA-N
     RDKit          3D

 22 24  0  0  0  0  0  0  0  0999 V2000
   11.6262   14.9478   25.0784 C   0  0  0  0  0  0  0  0  0  0  0  0
   10.6175   14.5599   24.0267 C   0  0  2  0  0  0  0  0  0  0  0  0
   10.9486   15.1055   22.6533 C   0  0  0  0  0  0  0  0  0  0  0  0
    9.7002   14.9530   21.7849 C   0  0  2  0  0  0  0  0  0  0  0  0
    9.9175   15.7752   20.5186 C   0  0  0  0  0  0  0  0  0  0  0  0
   10.6354   14.9943   19.5288 N   0  0  0  0  0  0  0  0  0  0  0  0
    9.5683   16.9195   20.5045 O   0  0  0  0  0  0  0  0  0  0  0  0
    8.4375   15.3326   22.5940 C   0  0  0  0  0  0  0  0  0  0  0  0
    8.1778   14.2847   23.6793 N   0  0  0  0  0  0  0  0  0  0  0  0
    7.0414   14.0796   24.5327 C   0  0  0  0  0  0  0  0  0  0  0  0
    6.0454   14.7319   24.6733 O   0  0  0  0  0  0  0  0  0  0  0  0
    7.3626   12.7632   25.3357 C   0  0  2  0  0  0  0  0  0  0  0  0
    7.7813   11.6911   24.3152 C   0  0  0  0  0  0  0  0  0  0  0  0
    8.0905   10.3433   24.8973 C   0  0  0  0  0  0  0  0  0  0  0  0
    6.6361    9.5990   25.6190 S   0  0  0  0  0  0  0  0  0  0  0  0
    5.9680   10.9639   26.5350 C   0  0  0  0  0  0  0  0  0  0  0  0
    5.0428   10.6028   27.5276 C   0  0  0  0  0  0  0  0  0  0  0  0
    4.4707   11.5638   28.3522 C   0  0  0  0  0  0  0  0  0  0  0  0
    4.8257   12.8953   28.1951 C   0  0  0  0  0  0  0  0  0  0  0  0
    5.7450   13.2625   27.2115 C   0  0  0  0  0  0  0  0  0  0  0  0
    6.3158   12.3122   26.3438 C   0  0  0  0  0  0  0  0  0  0  0  0
    9.2288   15.0857   24.4020 C   0  0  0  0  0  0  0  0  0  0  0  0
  2  1  1  1
  2  3  1  0
  3  4  1  0
  4  5  1  6
  5  6  1  0
  5  7  2  0
  4  8  1  0
  8  9  1  0
  9 10  1  0
 10 11  2  0
 12 10  1  6
 12 13  1  0
 13 14  1  0
 14 15  1  0
 15 16  1  0
 16 17  2  0
 17 18  1  0
 18 19  2  0
 19 20  1  0
 20 21  2  0
  9 22  1  0
 22  2  1  0
 21 12  1  0
 21 16  1  0
M  END
>  <alias>  (226) 
None

>  <Experiment code>  (226) 
nan

>  <CrystalformSites upload name>  (226) 
nan

>  <inchikey>  (226) 
ZTGZMPJKZODOKZ-MBNYWOFBSA-N

>  <Crystalforms upload name>  (226) 
nan

>  <Quatassemblies upload name>  (226) 
nan

>  <ConformerSites alias>  (226) 
nan

>  <ConformerSites short tag>  (226) 
nan

>  <Crystalforms short tag>  (226) 
nan

>  <Centroid res>  (226) 
nan

>  <Quatassemblies short tag>  (226) 
nan

>  <observation_longname>  (226) 
nan

>  <name>  (226) 
ZTGZMPJKZODOKZ-MBNYWOFBSA-N

>  <CanonSites upload name>  (226) 
nan

>  <tags>  (226) 
['iter2']

>  <energy_score>  (226) 
168.225727

>  <original SMILES>  (226) 
C[C@@H]1C[C@H](C(N)=O)CN(C(=O)[C@@H]2CCSc3ccccc32)C1

>  <ref_mols>  (226) 
A4386a

>  <Pose>  (226) 
nan

>  <distance_score>  (226) 
1.922917

>  <ConformerSites upload name>  (226) 
nan

>  <HIPPO Pose ID>  (226) 
294349

>  <Crystalforms alias>  (226) 
nan

>  <original ID>  (226) 
ZTGZMPJKZODOKZ-MBNYWOFBSA-N

>  <CanonSites alias>  (226) 
nan

>  <CrystalformSites alias>  (226) 
nan

>  <ref_pdb>  (226) 
A4386a

>  <CanonSites short tag>  (226) 
nan

>  <Quatassemblies alias>  (226) 
nan

>  <HIPPO Compound ID>  (226) 
123149

>  <CrystalformSites short tag>  (226) 
nan

$$$$
ZTGZMPJKZODOKZ-OBJOEFQTSA-N
     RDKit          3D

 22 24  0  0  0  0  0  0  0  0999 V2000
   11.6639   13.4481   25.0989 C   0  0  0  0  0  0  0  0  0  0  0  0
   11.0673   14.5299   24.2294 C   0  0  1  0  0  0  0  0  0  0  0  0
   10.7922   14.0618   22.8218 C   0  0  0  0  0  0  0  0  0  0  0  0
   10.1517   15.2471   22.1142 C   0  0  2  0  0  0  0  0  0  0  0  0
   11.1522   15.8589   21.1374 C   0  0  0  0  0  0  0  0  0  0  0  0
   11.3795   14.9669   20.0063 N   0  0  0  0  0  0  0  0  0  0  0  0
   11.6162   16.9355   21.3880 O   0  0  0  0  0  0  0  0  0  0  0  0
    9.6591   16.2602   23.1918 C   0  0  0  0  0  0  0  0  0  0  0  0
    8.5634   15.6284   23.9941 N   0  0  0  0  0  0  0  0  0  0  0  0
    7.5777   16.2075   24.8415 C   0  0  0  0  0  0  0  0  0  0  0  0
    7.4283   17.3477   25.2037 O   0  0  0  0  0  0  0  0  0  0  0  0
    6.4701   15.2209   25.2688 C   0  0  1  0  0  0  0  0  0  0  0  0
    5.4799   15.1112   24.0876 C   0  0  0  0  0  0  0  0  0  0  0  0
    6.0356   14.3974   22.8542 C   0  0  0  0  0  0  0  0  0  0  0  0
    7.2102   13.0331   23.1534 S   0  0  0  0  0  0  0  0  0  0  0  0
    6.9793   12.7562   24.8886 C   0  0  0  0  0  0  0  0  0  0  0  0
    6.9456   11.4294   25.3332 C   0  0  0  0  0  0  0  0  0  0  0  0
    6.5129   11.1379   26.6206 C   0  0  0  0  0  0  0  0  0  0  0  0
    6.2350   12.1739   27.5085 C   0  0  0  0  0  0  0  0  0  0  0  0
    6.3698   13.5011   27.1002 C   0  0  0  0  0  0  0  0  0  0  0  0
    6.7086   13.8112   25.7718 C   0  0  0  0  0  0  0  0  0  0  0  0
    9.7645   15.1376   24.8358 C   0  0  0  0  0  0  0  0  0  0  0  0
  2  1  1  1
  2  3  1  0
  3  4  1  0
  4  5  1  6
  5  6  1  0
  5  7  2  0
  4  8  1  0
  8  9  1  0
  9 10  1  0
 10 11  2  0
 12 10  1  6
 12 13  1  0
 13 14  1  0
 14 15  1  0
 15 16  1  0
 16 17  2  0
 17 18  1  0
 18 19  2  0
 19 20  1  0
 20 21  2  0
  9 22  1  0
 22  2  1  0
 21 12  1  0
 21 16  1  0
M  END
>  <alias>  (227) 
None

>  <Experiment code>  (227) 
nan

>  <CrystalformSites upload name>  (227) 
nan

>  <inchikey>  (227) 
ZTGZMPJKZODOKZ-OBJOEFQTSA-N

>  <Crystalforms upload name>  (227) 
nan

>  <Quatassemblies upload name>  (227) 
nan

>  <ConformerSites alias>  (227) 
nan

>  <ConformerSites short tag>  (227) 
nan

>  <Crystalforms short tag>  (227) 
nan

>  <Centroid res>  (227) 
nan

>  <Quatassemblies short tag>  (227) 
nan

>  <observation_longname>  (227) 
nan

>  <name>  (227) 
ZTGZMPJKZODOKZ-OBJOEFQTSA-N

>  <CanonSites upload name>  (227) 
nan

>  <tags>  (227) 
['iter2']

>  <energy_score>  (227) 
93.445801

>  <original SMILES>  (227) 
C[C@H]1C[C@H](C(N)=O)CN(C(=O)[C@H]2CCSc3ccccc32)C1

>  <ref_mols>  (227) 
A4386a

>  <Pose>  (227) 
nan

>  <distance_score>  (227) 
2.567272

>  <ConformerSites upload name>  (227) 
nan

>  <HIPPO Pose ID>  (227) 
294350

>  <Crystalforms alias>  (227) 
nan

>  <original ID>  (227) 
ZTGZMPJKZODOKZ-OBJOEFQTSA-N

>  <CanonSites alias>  (227) 
nan

>  <CrystalformSites alias>  (227) 
nan

>  <ref_pdb>  (227) 
A4386a

>  <CanonSites short tag>  (227) 
nan

>  <Quatassemblies alias>  (227) 
nan

>  <HIPPO Compound ID>  (227) 
123149

>  <CrystalformSites short tag>  (227) 
nan

$$$$
ZTGZMPJKZODOKZ-YRGRVCCFSA-N
     RDKit          3D

 22 24  0  0  0  0  0  0  0  0999 V2000
    9.9196   16.2611   26.1020 C   0  0  0  0  0  0  0  0  0  0  0  0
   10.0099   15.5355   24.7647 C   0  0  2  0  0  0  0  0  0  0  0  0
   10.8096   16.2655   23.7151 C   0  0  0  0  0  0  0  0  0  0  0  0
   10.2456   16.1290   22.2910 C   0  0  1  0  0  0  0  0  0  0  0  0
   11.4471   15.8831   21.3578 C   0  0  0  0  0  0  0  0  0  0  0  0
   11.5895   14.5586   20.8151 N   0  0  0  0  0  0  0  0  0  0  0  0
   12.1643   16.8440   21.2752 O   0  0  0  0  0  0  0  0  0  0  0  0
    8.9457   15.3229   22.2052 C   0  0  0  0  0  0  0  0  0  0  0  0
    8.8310   14.1547   23.1472 N   0  0  0  0  0  0  0  0  0  0  0  0
    7.8073   13.1815   23.2985 C   0  0  0  0  0  0  0  0  0  0  0  0
    6.7313   13.0940   22.7754 O   0  0  0  0  0  0  0  0  0  0  0  0
    8.3268   12.1586   24.3501 C   0  0  2  0  0  0  0  0  0  0  0  0
    9.0758   11.1273   23.5138 C   0  0  0  0  0  0  0  0  0  0  0  0
    9.3550    9.7691   24.0734 C   0  0  0  0  0  0  0  0  0  0  0  0
    7.9004    9.0266   24.7956 S   0  0  0  0  0  0  0  0  0  0  0  0
    7.0220   10.3482   25.5602 C   0  0  0  0  0  0  0  0  0  0  0  0
    6.0006    9.9771   26.4529 C   0  0  0  0  0  0  0  0  0  0  0  0
    5.2415   10.9221   27.1346 C   0  0  0  0  0  0  0  0  0  0  0  0
    5.4801   12.2637   26.9079 C   0  0  0  0  0  0  0  0  0  0  0  0
    6.4704   12.6410   26.0008 C   0  0  0  0  0  0  0  0  0  0  0  0
    7.2524   11.6930   25.3039 C   0  0  0  0  0  0  0  0  0  0  0  0
    8.6440   15.2673   24.1607 C   0  0  0  0  0  0  0  0  0  0  0  0
  2  1  1  1
  2  3  1  0
  3  4  1  0
  4  5  1  6
  5  6  1  0
  5  7  2  0
  4  8  1  0
  8  9  1  0
  9 10  1  0
 10 11  2  0
 12 10  1  6
 12 13  1  0
 13 14  1  0
 14 15  1  0
 15 16  1  0
 16 17  2  0
 17 18  1  0
 18 19  2  0
 19 20  1  0
 20 21  2  0
  9 22  1  0
 22  2  1  0
 21 12  1  0
 21 16  1  0
M  END
>  <alias>  (228) 
None

>  <Experiment code>  (228) 
nan

>  <CrystalformSites upload name>  (228) 
nan

>  <inchikey>  (228) 
ZTGZMPJKZODOKZ-YRGRVCCFSA-N

>  <Crystalforms upload name>  (228) 
nan

>  <Quatassemblies upload name>  (228) 
nan

>  <ConformerSites alias>  (228) 
nan

>  <ConformerSites short tag>  (228) 
nan

>  <Crystalforms short tag>  (228) 
nan

>  <Centroid res>  (228) 
nan

>  <Quatassemblies short tag>  (228) 
nan

>  <observation_longname>  (228) 
nan

>  <name>  (228) 
ZTGZMPJKZODOKZ-YRGRVCCFSA-N

>  <CanonSites upload name>  (228) 
nan

>  <tags>  (228) 
['iter2']

>  <energy_score>  (228) 
10.845867

>  <original SMILES>  (228) 
C[C@@H]1C[C@@H](C(N)=O)CN(C(=O)[C@@H]2CCSc3ccccc32)C1

>  <ref_mols>  (228) 
A4386a

>  <Pose>  (228) 
nan

>  <distance_score>  (228) 
1.530561

>  <ConformerSites upload name>  (228) 
nan

>  <HIPPO Pose ID>  (228) 
294351

>  <Crystalforms alias>  (228) 
nan

>  <original ID>  (228) 
ZTGZMPJKZODOKZ-YRGRVCCFSA-N

>  <CanonSites alias>  (228) 
nan

>  <CrystalformSites alias>  (228) 
nan

>  <ref_pdb>  (228) 
A4386a

>  <CanonSites short tag>  (228) 
nan

>  <Quatassemblies alias>  (228) 
nan

>  <HIPPO Compound ID>  (228) 
123149

>  <CrystalformSites short tag>  (228) 
nan

$$$$
ZTGZMPJKZODOKZ-SCRDCRAPSA-N
     RDKit          3D

 22 24  0  0  0  0  0  0  0  0999 V2000
   11.8774   13.9295   25.0057 C   0  0  0  0  0  0  0  0  0  0  0  0
   10.9835   15.0579   24.5234 C   0  0  1  0  0  0  0  0  0  0  0  0
   10.9370   15.1616   23.0121 C   0  0  0  0  0  0  0  0  0  0  0  0
    9.9094   16.2364   22.6767 C   0  0  1  0  0  0  0  0  0  0  0  0
    9.2967   15.9333   21.2896 C   0  0  0  0  0  0  0  0  0  0  0  0
    8.2183   14.9700   21.3769 N   0  0  0  0  0  0  0  0  0  0  0  0
    9.8107   16.4455   20.3347 O   0  0  0  0  0  0  0  0  0  0  0  0
    8.9005   16.3506   23.8409 C   0  0  0  0  0  0  0  0  0  0  0  0
    8.3198   15.0023   24.1941 N   0  0  0  0  0  0  0  0  0  0  0  0
    7.1458   14.6558   24.9370 C   0  0  0  0  0  0  0  0  0  0  0  0
    6.3760   15.3486   25.5433 O   0  0  0  0  0  0  0  0  0  0  0  0
    6.8697   13.1116   24.7748 C   0  0  1  0  0  0  0  0  0  0  0  0
    7.9415   12.3143   23.9829 C   0  0  0  0  0  0  0  0  0  0  0  0
    8.6932   11.2841   24.7770 C   0  0  0  0  0  0  0  0  0  0  0  0
    7.5608    9.9783   25.2379 S   0  0  0  0  0  0  0  0  0  0  0  0
    6.3964   10.9708   26.1462 C   0  0  0  0  0  0  0  0  0  0  0  0
    5.6294   10.2702   27.0934 C   0  0  0  0  0  0  0  0  0  0  0  0
    4.7073   10.9283   27.8948 C   0  0  0  0  0  0  0  0  0  0  0  0
    4.5198   12.2894   27.7268 C   0  0  0  0  0  0  0  0  0  0  0  0
    5.2463   12.9844   26.7545 C   0  0  0  0  0  0  0  0  0  0  0  0
    6.2168   12.3569   25.9486 C   0  0  0  0  0  0  0  0  0  0  0  0
    9.5549   14.9547   25.1094 C   0  0  0  0  0  0  0  0  0  0  0  0
  2  1  1  6
  2  3  1  0
  3  4  1  0
  4  5  1  6
  5  6  1  0
  5  7  2  0
  4  8  1  0
  8  9  1  0
  9 10  1  0
 10 11  2  0
 12 10  1  1
 12 13  1  0
 13 14  1  0
 14 15  1  0
 15 16  1  0
 16 17  2  0
 17 18  1  0
 18 19  2  0
 19 20  1  0
 20 21  2  0
  9 22  1  0
 22  2  1  0
 21 12  1  0
 21 16  1  0
M  END
>  <alias>  (229) 
None

>  <Experiment code>  (229) 
nan

>  <CrystalformSites upload name>  (229) 
nan

>  <inchikey>  (229) 
ZTGZMPJKZODOKZ-SCRDCRAPSA-N

>  <Crystalforms upload name>  (229) 
nan

>  <Quatassemblies upload name>  (229) 
nan

>  <ConformerSites alias>  (229) 
nan

>  <ConformerSites short tag>  (229) 
nan

>  <Crystalforms short tag>  (229) 
nan

>  <Centroid res>  (229) 
nan

>  <Quatassemblies short tag>  (229) 
nan

>  <observation_longname>  (229) 
nan

>  <name>  (229) 
ZTGZMPJKZODOKZ-SCRDCRAPSA-N

>  <CanonSites upload name>  (229) 
nan

>  <tags>  (229) 
['iter2']

>  <energy_score>  (229) 
117.128273

>  <original SMILES>  (229) 
C[C@H]1C[C@@H](C(N)=O)CN(C(=O)[C@H]2CCSc3ccccc32)C1

>  <ref_mols>  (229) 
A4386a

>  <Pose>  (229) 
nan

>  <distance_score>  (229) 
2.09241

>  <ConformerSites upload name>  (229) 
nan

>  <HIPPO Pose ID>  (229) 
294352

>  <Crystalforms alias>  (229) 
nan

>  <original ID>  (229) 
ZTGZMPJKZODOKZ-SCRDCRAPSA-N

>  <CanonSites alias>  (229) 
nan

>  <CrystalformSites alias>  (229) 
nan

>  <ref_pdb>  (229) 
A4386a

>  <CanonSites short tag>  (229) 
nan

>  <Quatassemblies alias>  (229) 
nan

>  <HIPPO Compound ID>  (229) 
123149

>  <CrystalformSites short tag>  (229) 
nan

$$$$
AWQKJROYGCNUQN-MBNYWOFBSA-N
     RDKit          3D

 22 24  0  0  0  0  0  0  0  0999 V2000
   10.3559   16.1881   24.7829 C   0  0  0  0  0  0  0  0  0  0  0  0
   10.2494   14.9560   23.8627 C   0  0  2  0  0  0  0  0  0  0  0  0
   11.4456   14.7324   22.9222 C   0  0  0  0  0  0  0  0  0  0  0  0
   11.3486   15.5877   21.6868 C   0  0  0  0  0  0  0  0  0  0  0  0
    9.8997   15.5942   21.2446 C   0  0  2  0  0  0  0  0  0  0  0  0
    9.7015   16.8097   20.3374 C   0  0  0  0  0  0  0  0  0  0  0  0
   10.0124   16.5085   18.9554 N   0  0  0  0  0  0  0  0  0  0  0  0
    9.4018   17.8436   20.8613 O   0  0  0  0  0  0  0  0  0  0  0  0
    8.9969   15.6947   22.4904 C   0  0  0  0  0  0  0  0  0  0  0  0
    8.8906   14.4557   23.3554 N   0  0  0  0  0  0  0  0  0  0  0  0
    8.0293   14.1601   24.4670 C   0  0  0  0  0  0  0  0  0  0  0  0
    7.2403   14.8545   25.0467 O   0  0  0  0  0  0  0  0  0  0  0  0
    8.3122   12.6689   24.9358 C   0  0  2  0  0  0  0  0  0  0  0  0
    8.6052   11.8186   23.6876 C   0  0  0  0  0  0  0  0  0  0  0  0
    9.0404   10.4011   23.9406 C   0  0  0  0  0  0  0  0  0  0  0  0
    7.8283    9.4382   24.8296 S   0  0  0  0  0  0  0  0  0  0  0  0
    6.9409   10.6555   25.7710 C   0  0  0  0  0  0  0  0  0  0  0  0
    5.9091   10.1191   26.5666 C   0  0  0  0  0  0  0  0  0  0  0  0
    5.1942   10.9088   27.4576 C   0  0  0  0  0  0  0  0  0  0  0  0
    5.5196   12.2468   27.5756 C   0  0  0  0  0  0  0  0  0  0  0  0
    6.5304   12.7905   26.7783 C   0  0  0  0  0  0  0  0  0  0  0  0
    7.2277   12.0298   25.8152 C   0  0  0  0  0  0  0  0  0  0  0  0
  2  1  1  6
  2  3  1  0
  3  4  1  0
  4  5  1  0
  5  6  1  6
  6  7  1  0
  6  8  2  0
  5  9  1  0
  9 10  1  0
 10 11  1  0
 11 12  2  0
 13 11  1  6
 13 14  1  0
 14 15  1  0
 15 16  1  0
 16 17  1  0
 17 18  2  0
 18 19  1  0
 19 20  2  0
 20 21  1  0
 21 22  2  0
 10  2  1  0
 22 13  1  0
 22 17  1  0
M  END
>  <alias>  (230) 
None

>  <Experiment code>  (230) 
nan

>  <CrystalformSites upload name>  (230) 
nan

>  <inchikey>  (230) 
AWQKJROYGCNUQN-MBNYWOFBSA-N

>  <Crystalforms upload name>  (230) 
nan

>  <Quatassemblies upload name>  (230) 
nan

>  <ConformerSites alias>  (230) 
nan

>  <ConformerSites short tag>  (230) 
nan

>  <Crystalforms short tag>  (230) 
nan

>  <Centroid res>  (230) 
nan

>  <Quatassemblies short tag>  (230) 
nan

>  <observation_longname>  (230) 
nan

>  <name>  (230) 
AWQKJROYGCNUQN-MBNYWOFBSA-N

>  <CanonSites upload name>  (230) 
nan

>  <tags>  (230) 
['iter2']

>  <energy_score>  (230) 
170.364412

>  <original SMILES>  (230) 
C[C@@H]1CC[C@H](C(N)=O)CN1C(=O)[C@@H]1CCSc2ccccc21

>  <ref_mols>  (230) 
A4386a

>  <Pose>  (230) 
nan

>  <distance_score>  (230) 
1.352081

>  <ConformerSites upload name>  (230) 
nan

>  <HIPPO Pose ID>  (230) 
294353

>  <Crystalforms alias>  (230) 
nan

>  <original ID>  (230) 
AWQKJROYGCNUQN-MBNYWOFBSA-N

>  <CanonSites alias>  (230) 
nan

>  <CrystalformSites alias>  (230) 
nan

>  <ref_pdb>  (230) 
A4386a

>  <CanonSites short tag>  (230) 
nan

>  <Quatassemblies alias>  (230) 
nan

>  <HIPPO Compound ID>  (230) 
123119

>  <CrystalformSites short tag>  (230) 
nan

$$$$
AWQKJROYGCNUQN-SGMGOOAPSA-N
     RDKit          3D

 22 24  0  0  0  0  0  0  0  0999 V2000
   10.6455   14.8090   25.4136 C   0  0  0  0  0  0  0  0  0  0  0  0
   10.2243   15.3531   24.0218 C   0  0  1  0  0  0  0  0  0  0  0  0
   11.4551   15.0657   23.1227 C   0  0  0  0  0  0  0  0  0  0  0  0
   11.3553   15.7879   21.8007 C   0  0  0  0  0  0  0  0  0  0  0  0
    9.9236   15.7143   21.3106 C   0  0  2  0  0  0  0  0  0  0  0  0
    9.7083   16.8666   20.3267 C   0  0  0  0  0  0  0  0  0  0  0  0
   10.0486   16.4821   18.9724 N   0  0  0  0  0  0  0  0  0  0  0  0
    9.3748   17.9255   20.7759 O   0  0  0  0  0  0  0  0  0  0  0  0
    8.9726   15.8445   22.5107 C   0  0  0  0  0  0  0  0  0  0  0  0
    8.9407   14.6452   23.4320 N   0  0  0  0  0  0  0  0  0  0  0  0
    8.0299   14.3000   24.4908 C   0  0  0  0  0  0  0  0  0  0  0  0
    7.1198   14.9214   24.9687 O   0  0  0  0  0  0  0  0  0  0  0  0
    8.3130   12.7974   24.9466 C   0  0  2  0  0  0  0  0  0  0  0  0
    8.5876   11.9712   23.6776 C   0  0  0  0  0  0  0  0  0  0  0  0
    9.0392   10.5533   23.9149 C   0  0  0  0  0  0  0  0  0  0  0  0
    7.8446    9.5644   24.8053 S   0  0  0  0  0  0  0  0  0  0  0  0
    6.9541   10.7656   25.7652 C   0  0  0  0  0  0  0  0  0  0  0  0
    5.9359   10.2120   26.5663 C   0  0  0  0  0  0  0  0  0  0  0  0
    5.2182   10.9908   27.4651 C   0  0  0  0  0  0  0  0  0  0  0  0
    5.5279   12.3334   27.5863 C   0  0  0  0  0  0  0  0  0  0  0  0
    6.5276   12.8937   26.7863 C   0  0  0  0  0  0  0  0  0  0  0  0
    7.2266   12.1439   25.8166 C   0  0  0  0  0  0  0  0  0  0  0  0
  2  1  1  1
  2  3  1  0
  3  4  1  0
  4  5  1  0
  5  6  1  6
  6  7  1  0
  6  8  2  0
  5  9  1  0
  9 10  1  0
 10 11  1  0
 11 12  2  0
 13 11  1  6
 13 14  1  0
 14 15  1  0
 15 16  1  0
 16 17  1  0
 17 18  2  0
 18 19  1  0
 19 20  2  0
 20 21  1  0
 21 22  2  0
 10  2  1  0
 22 13  1  0
 22 17  1  0
M  END
>  <alias>  (231) 
None

>  <Experiment code>  (231) 
nan

>  <CrystalformSites upload name>  (231) 
nan

>  <inchikey>  (231) 
AWQKJROYGCNUQN-SGMGOOAPSA-N

>  <Crystalforms upload name>  (231) 
nan

>  <Quatassemblies upload name>  (231) 
nan

>  <ConformerSites alias>  (231) 
nan

>  <ConformerSites short tag>  (231) 
nan

>  <Crystalforms short tag>  (231) 
nan

>  <Centroid res>  (231) 
nan

>  <Quatassemblies short tag>  (231) 
nan

>  <observation_longname>  (231) 
nan

>  <name>  (231) 
AWQKJROYGCNUQN-SGMGOOAPSA-N

>  <CanonSites upload name>  (231) 
nan

>  <tags>  (231) 
['iter2']

>  <energy_score>  (231) 
134.10888

>  <original SMILES>  (231) 
C[C@H]1CC[C@H](C(N)=O)CN1C(=O)[C@@H]1CCSc2ccccc21

>  <ref_mols>  (231) 
A4386a

>  <Pose>  (231) 
nan

>  <distance_score>  (231) 
1.35088

>  <ConformerSites upload name>  (231) 
nan

>  <HIPPO Pose ID>  (231) 
294354

>  <Crystalforms alias>  (231) 
nan

>  <original ID>  (231) 
AWQKJROYGCNUQN-SGMGOOAPSA-N

>  <CanonSites alias>  (231) 
nan

>  <CrystalformSites alias>  (231) 
nan

>  <ref_pdb>  (231) 
A4386a

>  <CanonSites short tag>  (231) 
nan

>  <Quatassemblies alias>  (231) 
nan

>  <HIPPO Compound ID>  (231) 
123119

>  <CrystalformSites short tag>  (231) 
nan

$$$$
AWQKJROYGCNUQN-MBNYWOFBSA-N
     RDKit          3D

 22 24  0  0  0  0  0  0  0  0999 V2000
    7.8024   16.3186   23.7647 C   0  0  0  0  0  0  0  0  0  0  0  0
    9.0450   15.3933   23.7037 C   0  0  2  0  0  0  0  0  0  0  0  0
   10.4212   16.1106   23.7183 C   0  0  0  0  0  0  0  0  0  0  0  0
   10.7789   16.6199   22.3363 C   0  0  0  0  0  0  0  0  0  0  0  0
   10.4887   15.4714   21.4021 C   0  0  2  0  0  0  0  0  0  0  0  0
   10.5521   15.8425   19.9174 C   0  0  0  0  0  0  0  0  0  0  0  0
   10.8100   14.6638   19.1294 N   0  0  0  0  0  0  0  0  0  0  0  0
   10.4168   16.9825   19.5897 O   0  0  0  0  0  0  0  0  0  0  0  0
    9.0849   14.9932   21.7499 C   0  0  0  0  0  0  0  0  0  0  0  0
    8.9941   14.0608   22.9110 N   0  0  0  0  0  0  0  0  0  0  0  0
    7.9125   13.2563   23.3747 C   0  0  0  0  0  0  0  0  0  0  0  0
    6.7726   13.1929   23.0032 O   0  0  0  0  0  0  0  0  0  0  0  0
    8.4577   12.2932   24.4614 C   0  0  2  0  0  0  0  0  0  0  0  0
    9.0664   11.1709   23.6138 C   0  0  0  0  0  0  0  0  0  0  0  0
    9.2196    9.7914   24.1742 C   0  0  0  0  0  0  0  0  0  0  0  0
    7.7114    9.1893   24.9225 S   0  0  0  0  0  0  0  0  0  0  0  0
    7.0114   10.6015   25.7128 C   0  0  0  0  0  0  0  0  0  0  0  0
    5.9751   10.3345   26.6246 C   0  0  0  0  0  0  0  0  0  0  0  0
    5.3502   11.3608   27.3266 C   0  0  0  0  0  0  0  0  0  0  0  0
    5.7516   12.6711   27.1167 C   0  0  0  0  0  0  0  0  0  0  0  0
    6.7658   12.9464   26.1994 C   0  0  0  0  0  0  0  0  0  0  0  0
    7.4000   11.9177   25.4717 C   0  0  0  0  0  0  0  0  0  0  0  0
  2  1  1  6
  2  3  1  0
  3  4  1  0
  4  5  1  0
  5  6  1  6
  6  7  1  0
  6  8  2  0
  5  9  1  0
  9 10  1  0
 10 11  1  0
 11 12  2  0
 13 11  1  6
 13 14  1  0
 14 15  1  0
 15 16  1  0
 16 17  1  0
 17 18  2  0
 18 19  1  0
 19 20  2  0
 20 21  1  0
 21 22  2  0
 10  2  1  0
 22 13  1  0
 22 17  1  0
M  END
>  <alias>  (232) 
None

>  <Experiment code>  (232) 
nan

>  <CrystalformSites upload name>  (232) 
nan

>  <inchikey>  (232) 
AWQKJROYGCNUQN-MBNYWOFBSA-N

>  <Crystalforms upload name>  (232) 
nan

>  <Quatassemblies upload name>  (232) 
nan

>  <ConformerSites alias>  (232) 
nan

>  <ConformerSites short tag>  (232) 
nan

>  <Crystalforms short tag>  (232) 
nan

>  <Centroid res>  (232) 
nan

>  <Quatassemblies short tag>  (232) 
nan

>  <observation_longname>  (232) 
nan

>  <name>  (232) 
AWQKJROYGCNUQN-MBNYWOFBSA-N

>  <CanonSites upload name>  (232) 
nan

>  <tags>  (232) 
['iter2']

>  <energy_score>  (232) 
139.604848

>  <original SMILES>  (232) 
C[C@@H]1CC[C@H](C(N)=O)CN1C(=O)[C@@H]1CCSc2ccccc21

>  <ref_mols>  (232) 
A4386a

>  <Pose>  (232) 
nan

>  <distance_score>  (232) 
1.15925

>  <ConformerSites upload name>  (232) 
nan

>  <HIPPO Pose ID>  (232) 
294355

>  <Crystalforms alias>  (232) 
nan

>  <original ID>  (232) 
AWQKJROYGCNUQN-MBNYWOFBSA-N

>  <CanonSites alias>  (232) 
nan

>  <CrystalformSites alias>  (232) 
nan

>  <ref_pdb>  (232) 
A4386a

>  <CanonSites short tag>  (232) 
nan

>  <Quatassemblies alias>  (232) 
nan

>  <HIPPO Compound ID>  (232) 
123119

>  <CrystalformSites short tag>  (232) 
nan

$$$$
AWQKJROYGCNUQN-OUCADQQQSA-N
     RDKit          3D

 22 24  0  0  0  0  0  0  0  0999 V2000
    9.0019   15.6533   25.2428 C   0  0  0  0  0  0  0  0  0  0  0  0
    9.2993   15.6655   23.7225 C   0  0  1  0  0  0  0  0  0  0  0  0
   10.8366   15.7827   23.5998 C   0  0  0  0  0  0  0  0  0  0  0  0
   11.2850   15.6476   22.1537 C   0  0  0  0  0  0  0  0  0  0  0  0
   10.1152   16.0620   21.2824 C   0  0  1  0  0  0  0  0  0  0  0  0
   10.3555   15.9713   19.7578 C   0  0  0  0  0  0  0  0  0  0  0  0
   10.7528   14.6669   19.3019 N   0  0  0  0  0  0  0  0  0  0  0  0
   10.2350   17.0024   19.1606 O   0  0  0  0  0  0  0  0  0  0  0  0
    8.8135   15.4030   21.7768 C   0  0  0  0  0  0  0  0  0  0  0  0
    8.8514   14.3955   22.9222 N   0  0  0  0  0  0  0  0  0  0  0  0
    7.7872   13.7223   23.6118 C   0  0  0  0  0  0  0  0  0  0  0  0
    6.5962   13.8506   23.5219 O   0  0  0  0  0  0  0  0  0  0  0  0
    8.3913   12.5886   24.5303 C   0  0  2  0  0  0  0  0  0  0  0  0
    8.9135   11.5772   23.5056 C   0  0  0  0  0  0  0  0  0  0  0  0
    9.2897   10.1931   23.9445 C   0  0  0  0  0  0  0  0  0  0  0  0
    7.9530    9.3441   24.7728 S   0  0  0  0  0  0  0  0  0  0  0  0
    7.1099   10.6433   25.6352 C   0  0  0  0  0  0  0  0  0  0  0  0
    6.0938   10.2025   26.5047 C   0  0  0  0  0  0  0  0  0  0  0  0
    5.3779   11.0935   27.2966 C   0  0  0  0  0  0  0  0  0  0  0  0
    5.6691   12.4443   27.2242 C   0  0  0  0  0  0  0  0  0  0  0  0
    6.6560   12.8943   26.3455 C   0  0  0  0  0  0  0  0  0  0  0  0
    7.3771   12.0124   25.5124 C   0  0  0  0  0  0  0  0  0  0  0  0
  2  1  1  1
  2  3  1  0
  3  4  1  0
  4  5  1  0
  5  6  1  6
  6  7  1  0
  6  8  2  0
  5  9  1  0
  9 10  1  0
 10 11  1  0
 11 12  2  0
 13 11  1  6
 13 14  1  0
 14 15  1  0
 15 16  1  0
 16 17  1  0
 17 18  2  0
 18 19  1  0
 19 20  2  0
 20 21  1  0
 21 22  2  0
 10  2  1  0
 22 13  1  0
 22 17  1  0
M  END
>  <alias>  (233) 
None

>  <Experiment code>  (233) 
nan

>  <CrystalformSites upload name>  (233) 
nan

>  <inchikey>  (233) 
AWQKJROYGCNUQN-OUCADQQQSA-N

>  <Crystalforms upload name>  (233) 
nan

>  <Quatassemblies upload name>  (233) 
nan

>  <ConformerSites alias>  (233) 
nan

>  <ConformerSites short tag>  (233) 
nan

>  <Crystalforms short tag>  (233) 
nan

>  <Centroid res>  (233) 
nan

>  <Quatassemblies short tag>  (233) 
nan

>  <observation_longname>  (233) 
nan

>  <name>  (233) 
AWQKJROYGCNUQN-OUCADQQQSA-N

>  <CanonSites upload name>  (233) 
nan

>  <tags>  (233) 
['iter2']

>  <energy_score>  (233) 
161.116993

>  <original SMILES>  (233) 
C[C@H]1CC[C@@H](C(N)=O)CN1C(=O)[C@@H]1CCSc2ccccc21

>  <ref_mols>  (233) 
A4386a

>  <Pose>  (233) 
nan

>  <distance_score>  (233) 
1.039375

>  <ConformerSites upload name>  (233) 
nan

>  <HIPPO Pose ID>  (233) 
294356

>  <Crystalforms alias>  (233) 
nan

>  <original ID>  (233) 
AWQKJROYGCNUQN-OUCADQQQSA-N

>  <CanonSites alias>  (233) 
nan

>  <CrystalformSites alias>  (233) 
nan

>  <ref_pdb>  (233) 
A4386a

>  <CanonSites short tag>  (233) 
nan

>  <Quatassemblies alias>  (233) 
nan

>  <HIPPO Compound ID>  (233) 
123119

>  <CrystalformSites short tag>  (233) 
nan

$$$$
AWQKJROYGCNUQN-MBNYWOFBSA-N
     RDKit          3D

 22 24  0  0  0  0  0  0  0  0999 V2000
    7.8208   16.3198   23.7864 C   0  0  0  0  0  0  0  0  0  0  0  0
    9.0566   15.3862   23.7150 C   0  0  2  0  0  0  0  0  0  0  0  0
   10.4380   16.0926   23.7266 C   0  0  0  0  0  0  0  0  0  0  0  0
   10.7978   16.5976   22.3441 C   0  0  0  0  0  0  0  0  0  0  0  0
   10.4888   15.4558   21.4065 C   0  0  2  0  0  0  0  0  0  0  0  0
   10.5528   15.8367   19.9245 C   0  0  0  0  0  0  0  0  0  0  0  0
   10.7851   14.6620   19.1242 N   0  0  0  0  0  0  0  0  0  0  0  0
   10.4474   16.9835   19.6096 O   0  0  0  0  0  0  0  0  0  0  0  0
    9.0817   14.9921   21.7602 C   0  0  0  0  0  0  0  0  0  0  0  0
    8.9908   14.0572   22.9196 N   0  0  0  0  0  0  0  0  0  0  0  0
    7.9061   13.2599   23.3878 C   0  0  0  0  0  0  0  0  0  0  0  0
    6.7636   13.2062   23.0232 O   0  0  0  0  0  0  0  0  0  0  0  0
    8.4518   12.2903   24.4685 C   0  0  2  0  0  0  0  0  0  0  0  0
    9.0542   11.1687   23.6158 C   0  0  0  0  0  0  0  0  0  0  0  0
    9.2086    9.7886   24.1739 C   0  0  0  0  0  0  0  0  0  0  0  0
    7.7033    9.1881   24.9315 S   0  0  0  0  0  0  0  0  0  0  0  0
    7.0055   10.6008   25.7220 C   0  0  0  0  0  0  0  0  0  0  0  0
    5.9695   10.3350   26.6344 C   0  0  0  0  0  0  0  0  0  0  0  0
    5.3471   11.3618   27.3380 C   0  0  0  0  0  0  0  0  0  0  0  0
    5.7511   12.6715   27.1294 C   0  0  0  0  0  0  0  0  0  0  0  0
    6.7648   12.9455   26.2113 C   0  0  0  0  0  0  0  0  0  0  0  0
    7.3960   11.9163   25.4815 C   0  0  0  0  0  0  0  0  0  0  0  0
  2  1  1  6
  2  3  1  0
  3  4  1  0
  4  5  1  0
  5  6  1  6
  6  7  1  0
  6  8  2  0
  5  9  1  0
  9 10  1  0
 10 11  1  0
 11 12  2  0
 13 11  1  6
 13 14  1  0
 14 15  1  0
 15 16  1  0
 16 17  1  0
 17 18  2  0
 18 19  1  0
 19 20  2  0
 20 21  1  0
 21 22  2  0
 10  2  1  0
 22 13  1  0
 22 17  1  0
M  END
>  <alias>  (234) 
None

>  <Experiment code>  (234) 
nan

>  <CrystalformSites upload name>  (234) 
nan

>  <inchikey>  (234) 
AWQKJROYGCNUQN-MBNYWOFBSA-N

>  <Crystalforms upload name>  (234) 
nan

>  <Quatassemblies upload name>  (234) 
nan

>  <ConformerSites alias>  (234) 
nan

>  <ConformerSites short tag>  (234) 
nan

>  <Crystalforms short tag>  (234) 
nan

>  <Centroid res>  (234) 
nan

>  <Quatassemblies short tag>  (234) 
nan

>  <observation_longname>  (234) 
nan

>  <name>  (234) 
AWQKJROYGCNUQN-MBNYWOFBSA-N

>  <CanonSites upload name>  (234) 
nan

>  <tags>  (234) 
['iter2']

>  <energy_score>  (234) 
142.905115

>  <original SMILES>  (234) 
C[C@@H]1CC[C@H](C(N)=O)CN1C(=O)[C@@H]1CCSc2ccccc21

>  <ref_mols>  (234) 
A4386a

>  <Pose>  (234) 
nan

>  <distance_score>  (234) 
1.160503

>  <ConformerSites upload name>  (234) 
nan

>  <HIPPO Pose ID>  (234) 
294357

>  <Crystalforms alias>  (234) 
nan

>  <original ID>  (234) 
AWQKJROYGCNUQN-MBNYWOFBSA-N

>  <CanonSites alias>  (234) 
nan

>  <CrystalformSites alias>  (234) 
nan

>  <ref_pdb>  (234) 
A4386a

>  <CanonSites short tag>  (234) 
nan

>  <Quatassemblies alias>  (234) 
nan

>  <HIPPO Compound ID>  (234) 
123119

>  <CrystalformSites short tag>  (234) 
nan

$$$$
AWQKJROYGCNUQN-SGMGOOAPSA-N
     RDKit          3D

 22 24  0  0  0  0  0  0  0  0999 V2000
    8.2544   16.1325   25.0421 C   0  0  0  0  0  0  0  0  0  0  0  0
    8.7903   15.9152   23.6011 C   0  0  1  0  0  0  0  0  0  0  0  0
   10.3023   16.2662   23.6894 C   0  0  0  0  0  0  0  0  0  0  0  0
   10.8282   16.5580   22.3045 C   0  0  0  0  0  0  0  0  0  0  0  0
   10.3612   15.4299   21.4117 C   0  0  2  0  0  0  0  0  0  0  0  0
   10.4708   15.8064   19.9248 C   0  0  0  0  0  0  0  0  0  0  0  0
   10.7694   14.6411   19.1379 N   0  0  0  0  0  0  0  0  0  0  0  0
   10.3318   16.9488   19.6021 O   0  0  0  0  0  0  0  0  0  0  0  0
    8.9059   15.0964   21.7533 C   0  0  0  0  0  0  0  0  0  0  0  0
    8.6764   14.4208   23.0833 N   0  0  0  0  0  0  0  0  0  0  0  0
    7.5024   13.7928   23.6245 C   0  0  0  0  0  0  0  0  0  0  0  0
    6.3849   13.7271   23.1922 O   0  0  0  0  0  0  0  0  0  0  0  0
    7.9147   13.0406   24.9224 C   0  0  2  0  0  0  0  0  0  0  0  0
    9.1865   12.2185   24.7272 C   0  0  0  0  0  0  0  0  0  0  0  0
    8.9435   10.9340   23.9713 C   0  0  0  0  0  0  0  0  0  0  0  0
    7.9355    9.7778   24.9123 S   0  0  0  0  0  0  0  0  0  0  0  0
    6.7784   10.8677   25.7080 C   0  0  0  0  0  0  0  0  0  0  0  0
    5.7996   10.2407   26.4960 C   0  0  0  0  0  0  0  0  0  0  0  0
    4.8585   10.9852   27.2023 C   0  0  0  0  0  0  0  0  0  0  0  0
    4.8652   12.3688   27.1038 C   0  0  0  0  0  0  0  0  0  0  0  0
    5.8319   13.0035   26.3251 C   0  0  0  0  0  0  0  0  0  0  0  0
    6.8156   12.2678   25.6339 C   0  0  0  0  0  0  0  0  0  0  0  0
  2  1  1  1
  2  3  1  0
  3  4  1  0
  4  5  1  0
  5  6  1  6
  6  7  1  0
  6  8  2  0
  5  9  1  0
  9 10  1  0
 10 11  1  0
 11 12  2  0
 13 11  1  6
 13 14  1  0
 14 15  1  0
 15 16  1  0
 16 17  1  0
 17 18  2  0
 18 19  1  0
 19 20  2  0
 20 21  1  0
 21 22  2  0
 10  2  1  0
 22 13  1  0
 22 17  1  0
M  END
>  <alias>  (235) 
None

>  <Experiment code>  (235) 
nan

>  <CrystalformSites upload name>  (235) 
nan

>  <inchikey>  (235) 
AWQKJROYGCNUQN-SGMGOOAPSA-N

>  <Crystalforms upload name>  (235) 
nan

>  <Quatassemblies upload name>  (235) 
nan

>  <ConformerSites alias>  (235) 
nan

>  <ConformerSites short tag>  (235) 
nan

>  <Crystalforms short tag>  (235) 
nan

>  <Centroid res>  (235) 
nan

>  <Quatassemblies short tag>  (235) 
nan

>  <observation_longname>  (235) 
nan

>  <name>  (235) 
AWQKJROYGCNUQN-SGMGOOAPSA-N

>  <CanonSites upload name>  (235) 
nan

>  <tags>  (235) 
['iter2']

>  <energy_score>  (235) 
162.302058

>  <original SMILES>  (235) 
C[C@H]1CC[C@H](C(N)=O)CN1C(=O)[C@@H]1CCSc2ccccc21

>  <ref_mols>  (235) 
A4386a

>  <Pose>  (235) 
nan

>  <distance_score>  (235) 
1.212879

>  <ConformerSites upload name>  (235) 
nan

>  <HIPPO Pose ID>  (235) 
294358

>  <Crystalforms alias>  (235) 
nan

>  <original ID>  (235) 
AWQKJROYGCNUQN-SGMGOOAPSA-N

>  <CanonSites alias>  (235) 
nan

>  <CrystalformSites alias>  (235) 
nan

>  <ref_pdb>  (235) 
A4386a

>  <CanonSites short tag>  (235) 
nan

>  <Quatassemblies alias>  (235) 
nan

>  <HIPPO Compound ID>  (235) 
123119

>  <CrystalformSites short tag>  (235) 
nan

$$$$
AWQKJROYGCNUQN-YRGRVCCFSA-N
     RDKit          3D

 22 24  0  0  0  0  0  0  0  0999 V2000
    7.2122   16.5168   22.6543 C   0  0  0  0  0  0  0  0  0  0  0  0
    8.5599   15.8415   22.9943 C   0  0  2  0  0  0  0  0  0  0  0  0
    9.7750   16.7936   22.9713 C   0  0  0  0  0  0  0  0  0  0  0  0
   10.9149   16.2713   22.1444 C   0  0  0  0  0  0  0  0  0  0  0  0
   10.2759   15.7705   20.8679 C   0  0  1  0  0  0  0  0  0  0  0  0
   11.2675   14.9168   20.0660 C   0  0  0  0  0  0  0  0  0  0  0  0
   11.0238   14.9409   18.6398 N   0  0  0  0  0  0  0  0  0  0  0  0
   12.0872   14.3250   20.7053 O   0  0  0  0  0  0  0  0  0  0  0  0
    9.0187   14.9779   21.2668 C   0  0  0  0  0  0  0  0  0  0  0  0
    8.8332   14.3815   22.6307 N   0  0  0  0  0  0  0  0  0  0  0  0
    7.7903   13.5389   23.1508 C   0  0  0  0  0  0  0  0  0  0  0  0
    6.7594   13.1746   22.6514 O   0  0  0  0  0  0  0  0  0  0  0  0
    8.2237   13.0639   24.5513 C   0  0  2  0  0  0  0  0  0  0  0  0
    9.4662   12.1895   24.4376 C   0  0  0  0  0  0  0  0  0  0  0  0
    9.1745   10.8088   23.8835 C   0  0  0  0  0  0  0  0  0  0  0  0
    8.0490    9.8284   24.8925 S   0  0  0  0  0  0  0  0  0  0  0  0
    6.9850   11.0641   25.5902 C   0  0  0  0  0  0  0  0  0  0  0  0
    5.9642   10.5766   26.4242 C   0  0  0  0  0  0  0  0  0  0  0  0
    5.0784   11.4451   27.0560 C   0  0  0  0  0  0  0  0  0  0  0  0
    5.1939   12.8126   26.8469 C   0  0  0  0  0  0  0  0  0  0  0  0
    6.2028   13.3079   26.0201 C   0  0  0  0  0  0  0  0  0  0  0  0
    7.1220   12.4449   25.3920 C   0  0  0  0  0  0  0  0  0  0  0  0
  2  1  1  6
  2  3  1  0
  3  4  1  0
  4  5  1  0
  5  6  1  1
  6  7  1  0
  6  8  2  0
  5  9  1  0
  9 10  1  0
 10 11  1  0
 11 12  2  0
 13 11  1  6
 13 14  1  0
 14 15  1  0
 15 16  1  0
 16 17  1  0
 17 18  2  0
 18 19  1  0
 19 20  2  0
 20 21  1  0
 21 22  2  0
 10  2  1  0
 22 13  1  0
 22 17  1  0
M  END
>  <alias>  (236) 
None

>  <Experiment code>  (236) 
nan

>  <CrystalformSites upload name>  (236) 
nan

>  <inchikey>  (236) 
AWQKJROYGCNUQN-YRGRVCCFSA-N

>  <Crystalforms upload name>  (236) 
nan

>  <Quatassemblies upload name>  (236) 
nan

>  <ConformerSites alias>  (236) 
nan

>  <ConformerSites short tag>  (236) 
nan

>  <Crystalforms short tag>  (236) 
nan

>  <Centroid res>  (236) 
nan

>  <Quatassemblies short tag>  (236) 
nan

>  <observation_longname>  (236) 
nan

>  <name>  (236) 
AWQKJROYGCNUQN-YRGRVCCFSA-N

>  <CanonSites upload name>  (236) 
nan

>  <tags>  (236) 
['iter2']

>  <energy_score>  (236) 
120.184847

>  <original SMILES>  (236) 
C[C@@H]1CC[C@@H](C(N)=O)CN1C(=O)[C@@H]1CCSc2ccccc21

>  <ref_mols>  (236) 
A4386a

>  <Pose>  (236) 
nan

>  <distance_score>  (236) 
1.547229

>  <ConformerSites upload name>  (236) 
nan

>  <HIPPO Pose ID>  (236) 
294359

>  <Crystalforms alias>  (236) 
nan

>  <original ID>  (236) 
AWQKJROYGCNUQN-YRGRVCCFSA-N

>  <CanonSites alias>  (236) 
nan

>  <CrystalformSites alias>  (236) 
nan

>  <ref_pdb>  (236) 
A4386a

>  <CanonSites short tag>  (236) 
nan

>  <Quatassemblies alias>  (236) 
nan

>  <HIPPO Compound ID>  (236) 
123119

>  <CrystalformSites short tag>  (236) 
nan

$$$$
AWQKJROYGCNUQN-OUCADQQQSA-N
     RDKit          3D

 22 24  0  0  0  0  0  0  0  0999 V2000
    8.2443   16.0041   24.6699 C   0  0  0  0  0  0  0  0  0  0  0  0
    8.8781   15.8163   23.2702 C   0  0  1  0  0  0  0  0  0  0  0  0
   10.3891   16.1948   23.4189 C   0  0  0  0  0  0  0  0  0  0  0  0
   11.1501   15.9530   22.1165 C   0  0  0  0  0  0  0  0  0  0  0  0
   10.1162   16.0095   21.0148 C   0  0  1  0  0  0  0  0  0  0  0  0
   10.6510   15.8460   19.5753 C   0  0  0  0  0  0  0  0  0  0  0  0
   11.2678   14.5722   19.3233 N   0  0  0  0  0  0  0  0  0  0  0  0
   10.5563   16.8182   18.8808 O   0  0  0  0  0  0  0  0  0  0  0  0
    8.9418   15.0962   21.3914 C   0  0  0  0  0  0  0  0  0  0  0  0
    8.8769   14.3537   22.7066 N   0  0  0  0  0  0  0  0  0  0  0  0
    7.8128   13.5895   23.2989 C   0  0  0  0  0  0  0  0  0  0  0  0
    6.6783   13.4240   22.9397 O   0  0  0  0  0  0  0  0  0  0  0  0
    8.3728   12.8299   24.5365 C   0  0  2  0  0  0  0  0  0  0  0  0
    9.5414   11.9354   24.1211 C   0  0  0  0  0  0  0  0  0  0  0  0
    9.1493   10.5630   23.6341 C   0  0  0  0  0  0  0  0  0  0  0  0
    8.1848    9.5813   24.7775 S   0  0  0  0  0  0  0  0  0  0  0  0
    7.1438   10.7948   25.5321 C   0  0  0  0  0  0  0  0  0  0  0  0
    6.1256   10.2793   26.3547 C   0  0  0  0  0  0  0  0  0  0  0  0
    5.2754   11.1193   27.0662 C   0  0  0  0  0  0  0  0  0  0  0  0
    5.4300   12.4912   26.9547 C   0  0  0  0  0  0  0  0  0  0  0  0
    6.4317   13.0118   26.1337 C   0  0  0  0  0  0  0  0  0  0  0  0
    7.3064   12.1779   25.4056 C   0  0  0  0  0  0  0  0  0  0  0  0
  2  1  1  1
  2  3  1  0
  3  4  1  0
  4  5  1  0
  5  6  1  6
  6  7  1  0
  6  8  2  0
  5  9  1  0
  9 10  1  0
 10 11  1  0
 11 12  2  0
 13 11  1  6
 13 14  1  0
 14 15  1  0
 15 16  1  0
 16 17  1  0
 17 18  2  0
 18 19  1  0
 19 20  2  0
 20 21  1  0
 21 22  2  0
 10  2  1  0
 22 13  1  0
 22 17  1  0
M  END
>  <alias>  (237) 
None

>  <Experiment code>  (237) 
nan

>  <CrystalformSites upload name>  (237) 
nan

>  <inchikey>  (237) 
AWQKJROYGCNUQN-OUCADQQQSA-N

>  <Crystalforms upload name>  (237) 
nan

>  <Quatassemblies upload name>  (237) 
nan

>  <ConformerSites alias>  (237) 
nan

>  <ConformerSites short tag>  (237) 
nan

>  <Crystalforms short tag>  (237) 
nan

>  <Centroid res>  (237) 
nan

>  <Quatassemblies short tag>  (237) 
nan

>  <observation_longname>  (237) 
nan

>  <name>  (237) 
AWQKJROYGCNUQN-OUCADQQQSA-N

>  <CanonSites upload name>  (237) 
nan

>  <tags>  (237) 
['iter2']

>  <energy_score>  (237) 
-125.282081

>  <original SMILES>  (237) 
C[C@H]1CC[C@@H](C(N)=O)CN1C(=O)[C@@H]1CCSc2ccccc21

>  <ref_mols>  (237) 
A4386a

>  <Pose>  (237) 
nan

>  <distance_score>  (237) 
1.093199

>  <ConformerSites upload name>  (237) 
nan

>  <HIPPO Pose ID>  (237) 
294360

>  <Crystalforms alias>  (237) 
nan

>  <original ID>  (237) 
AWQKJROYGCNUQN-OUCADQQQSA-N

>  <CanonSites alias>  (237) 
nan

>  <CrystalformSites alias>  (237) 
nan

>  <ref_pdb>  (237) 
A4386a

>  <CanonSites short tag>  (237) 
nan

>  <Quatassemblies alias>  (237) 
nan

>  <HIPPO Compound ID>  (237) 
123119

>  <CrystalformSites short tag>  (237) 
nan

$$$$
