A71EV2A-x3280_A_246_1_A71EV2A-x0526+A+147+1__LIG
     RDKit          3D

 23 25  0  0  0  0  0  0  0  0999 V2000
   12.6060   16.1920   21.9580 F   0  0  0  0  0  0  0  0  0  0  0  0
   11.6470   15.2080   21.8880 C   0  0  0  0  0  0  0  0  0  0  0  0
   12.0400   14.4110   20.8370 F   0  0  0  0  0  0  0  0  0  0  0  0
   10.3230   15.8830   21.4580 C   0  0  0  0  0  0  0  0  0  0  0  0
    9.9180   17.0140   22.0580 N   0  0  0  0  0  0  0  0  0  0  0  0
    8.8660   17.6600   21.5310 C   0  0  0  0  0  0  0  0  0  0  0  0
    8.1930   17.2260   20.4210 C   0  0  0  0  0  0  0  0  0  0  0  0
    8.6120   16.0610   19.8240 C   0  0  0  0  0  0  0  0  0  0  0  0
    9.6740   15.3610   20.3560 C   0  0  0  0  0  0  0  0  0  0  0  0
   11.5920   14.3990   23.1590 C   0  0  0  0  0  0  0  0  0  0  0  0
   10.4750   13.4760   23.1000 N   0  0  0  0  0  0  0  0  0  0  0  0
    9.6420   13.2980   24.1290 C   0  0  0  0  0  0  0  0  0  0  0  0
    9.3630   14.1700   24.9460 O   0  0  0  0  0  0  0  0  0  0  0  0
    9.0810   11.9310   24.2610 C   0  0  0  0  0  0  0  0  0  0  0  0
    9.5640   10.9220   23.5310 N   0  0  0  0  0  0  0  0  0  0  0  0
    8.0340   11.4780   25.1310 C   0  0  0  0  0  0  0  0  0  0  0  0
    7.9120   10.1130   24.8570 C   0  0  0  0  0  0  0  0  0  0  0  0
    8.8470    9.8160   23.9070 N   0  0  0  0  0  0  0  0  0  0  0  0
    9.1250    8.5320   23.2860 C   0  0  0  0  0  0  0  0  0  0  0  0
    6.9710    9.3220   25.5020 C   0  0  0  0  0  0  0  0  0  0  0  0
    6.1610    9.9130   26.4640 C   0  0  0  0  0  0  0  0  0  0  0  0
    6.2830   11.2620   26.7610 C   0  0  0  0  0  0  0  0  0  0  0  0
    7.2090   12.0520   26.0970 C   0  0  0  0  0  0  0  0  0  0  0  0
 19 18  1  0
 18 15  1  0
 15 14  2  0
 14 12  1  0
 13 12  2  0
 12 11  1  0
 11 10  1  0
 10  2  1  0
  3  2  1  0
  2  1  1  0
  4  2  1  0
  4  9  2  0
  9  8  1  0
  8  7  2  0
  7  6  1  0
  6  5  2  0
  5  4  1  0
 16 14  1  0
 16 23  2  0
 23 22  1  0
 22 21  2  0
 21 20  1  0
 20 17  2  0
 17 16  1  0
 18 17  1  0
M  END
$$$$
