A71EV2A-x3222_A_201_1_A71EV2A-x0526+A+147+1__LIG
     RDKit          3D

 17 18  0  0  0  0  0  0  0  0999 V2000
    9.0680   10.0800   23.8040 Br  0  0  0  0  0  0  0  0  0  0  0  0
    7.7360   11.0980   24.6700 C   0  0  0  0  0  0  0  0  0  0  0  0
    7.1460   10.7800   25.9260 C   0  0  0  0  0  0  0  0  0  0  0  0
    6.1940   11.6520   26.2410 N   0  0  0  0  0  0  0  0  0  0  0  0
    6.1540   12.5550   25.2090 N   0  0  0  0  0  0  0  0  0  0  0  0
    7.0580   12.2800   24.2400 C   0  0  0  0  0  0  0  0  0  0  0  0
    7.1750   13.1450   23.0120 C   0  0  0  0  0  0  0  0  0  0  0  0
    6.3200   13.0230   22.1430 O   0  0  0  0  0  0  0  0  0  0  0  0
    8.1510   14.0590   22.9350 N   0  0  0  0  0  0  0  0  0  0  0  0
    9.1210   14.3250   24.0110 C   0  0  0  0  0  0  0  0  0  0  0  0
   10.5600   14.2490   23.5200 C   0  0  0  0  0  0  0  0  0  0  0  0
   10.7590   15.1000   22.2650 C   0  0  0  0  0  0  0  0  0  0  0  0
    8.3470   14.9390   21.7790 C   0  0  0  0  0  0  0  0  0  0  0  0
    9.7370   14.6990   21.1900 C   0  0  1  0  0  0  0  0  0  0  0  0
   10.0030   15.3880   19.8620 C   0  0  0  0  0  0  0  0  0  0  0  0
    9.5120   16.4910   19.6080 O   0  0  0  0  0  0  0  0  0  0  0  0
   10.7700   14.7230   19.0000 N   0  0  0  0  0  0  0  0  0  0  0  0
 17 15  1  0
 16 15  2  0
 14 15  1  6
 14 12  1  0
 12 11  1  0
 11 10  1  0
 10  9  1  0
  9  7  1  0
  8  7  2  0
  7  6  1  0
  6  5  1  0
  5  4  1  0
  4  3  2  0
  3  2  1  0
  6  2  2  0
  2  1  1  0
 13  9  1  0
 14 13  1  0
M  END
$$$$
