A71EV2A-x3234_A_246_1_A71EV2A-x0526+A+147+1__LIG
     RDKit          3D

 19 21  0  0  0  0  0  0  0  0999 V2000
    9.4200   13.9820   24.2880 C   0  0  0  0  0  0  0  0  0  0  0  0
    8.8070   12.6200   24.4790 C   0  0  0  0  0  0  0  0  0  0  0  0
    9.3720   11.5250   23.8400 C   0  0  0  0  0  0  0  0  0  0  0  0
    8.9310   10.2300   24.0670 C   0  0  0  0  0  0  0  0  0  0  0  0
    9.5810    9.0670   23.3770 C   0  0  0  0  0  0  0  0  0  0  0  0
    7.7460   12.3950   25.3640 C   0  0  0  0  0  0  0  0  0  0  0  0
    7.2870   11.1030   25.6350 C   0  0  0  0  0  0  0  0  0  0  0  0
    6.2090   10.8390   26.6540 C   0  0  0  0  0  0  0  0  0  0  0  0
    7.8870   10.0410   24.9640 C   0  0  0  0  0  0  0  0  0  0  0  0
    7.1050   13.5130   25.9890 N   0  0  0  0  0  0  0  0  0  0  0  0
    6.3770   14.5410   25.4330 C   0  0  0  0  0  0  0  0  0  0  0  0
    5.6250   15.3020   26.1870 N   0  0  0  0  0  0  0  0  0  0  0  0
    4.8380   15.9810   25.3060 N   0  0  0  0  0  0  0  0  0  0  0  0
    5.1020   15.6450   24.0180 C   0  0  0  0  0  0  0  0  0  0  0  0
    6.0950   14.7030   24.0390 C   0  0  0  0  0  0  0  0  0  0  0  0
    3.8140   16.9120   25.8050 C   0  0  0  0  0  0  0  0  0  0  0  0
    2.6800   16.3020   26.7070 C   0  0  0  0  0  0  0  0  0  0  0  0
    3.2640   16.8660   27.9090 O   0  0  0  0  0  0  0  0  0  0  0  0
    4.1330   17.7160   27.1160 C   0  0  0  0  0  0  0  0  0  0  0  0
  5  4  1  0
  4  9  1  0
  9  7  2  0
  8  7  1  0
  7  6  1  0
 10  6  1  0
 11 10  1  0
 11 15  1  0
 15 14  2  0
 14 13  1  0
 16 13  1  0
 16 19  1  0
 19 18  1  0
 18 17  1  0
 17 16  1  0
 13 12  1  0
 12 11  2  0
  6  2  2  0
  2  1  1  0
  3  2  1  0
  4  3  2  0
M  END
$$$$
