A71EV2A-x3218_A_201_1_A71EV2A-x0526+A+147+1__LIG
     RDKit          3D

 20 22  0  0  0  0  0  0  0  0999 V2000
    7.2590   13.1730   22.8980 O   0  0  0  0  0  0  0  0  0  0  0  0
    8.2150   13.5160   23.5710 C   0  0  0  0  0  0  0  0  0  0  0  0
    8.9630   14.5850   23.2390 N   0  0  0  0  0  0  0  0  0  0  0  0
    9.9280   15.2560   24.1270 C   0  0  0  0  0  0  0  0  0  0  0  0
   11.3160   15.2840   23.5020 C   0  0  0  0  0  0  0  0  0  0  0  0
   11.2580   15.8280   22.0710 C   0  0  0  0  0  0  0  0  0  0  0  0
    8.8860   15.1500   21.8900 C   0  0  0  0  0  0  0  0  0  0  0  0
   10.2540   15.0390   21.2210 C   0  0  1  0  0  0  0  0  0  0  0  0
   10.1630   15.5860   19.8080 C   0  0  0  0  0  0  0  0  0  0  0  0
    9.7870   16.7450   19.5960 O   0  0  0  0  0  0  0  0  0  0  0  0
   10.4950   14.7430   18.8430 N   0  0  0  0  0  0  0  0  0  0  0  0
    8.7140   12.6300   24.7020 C   0  0  1  0  0  0  0  0  0  0  0  0
    7.5460   11.9960   25.4360 C   0  0  0  0  0  0  0  0  0  0  0  0
    6.4710   12.4530   26.2280 C   0  0  0  0  0  0  0  0  0  0  0  0
    5.7210   11.4520   26.6860 N   0  0  0  0  0  0  0  0  0  0  0  0
    6.3070   10.3270   26.1810 N   0  0  0  0  0  0  0  0  0  0  0  0
    7.3780   10.6370   25.4440 C   0  0  0  0  0  0  0  0  0  0  0  0
    8.1510    9.8320   24.7480 N   0  0  0  0  0  0  0  0  0  0  0  0
    9.5560   10.1870   24.6140 C   0  0  0  0  0  0  0  0  0  0  0  0
    9.7130   11.5980   24.0850 C   0  0  0  0  0  0  0  0  0  0  0  0
 11  9  1  0
 10  9  2  0
  8  9  1  6
  8  6  1  0
  6  5  1  0
  5  4  1  0
  4  3  1  0
  3  2  1  0
  2  1  2  0
 12  2  1  6
 12 20  1  0
 20 19  1  0
 19 18  1  0
 18 17  1  0
 17 16  1  0
 16 15  1  0
 15 14  2  0
 14 13  1  0
 17 13  2  0
 13 12  1  0
  7  3  1  0
  8  7  1  0
M  END
$$$$
