ver_1.2
     RDKit          3D

 14 14  0  0  0  0  0  0  0  0999 V2000
    4.1587    0.7948   -0.0506 C   0  0  0  0  0  0  0  0  0  0  0  0
    3.9371   -0.5765   -0.1686 O   0  0  0  0  0  0  0  0  0  0  0  0
    2.6806   -0.8957   -0.6307 C   0  0  0  0  0  0  0  0  0  0  0  0
    1.5955   -0.3995    0.2453 C   0  0  0  0  0  0  0  0  0  0  0  0
    2.0601    0.2099    1.2278 O   0  0  0  0  0  0  0  0  0  0  0  0
    0.2554   -0.6800   -0.1486 N   0  0  0  0  0  0  0  0  0  0  0  0
   -0.0952   -1.4140   -1.3428 C   0  0  0  0  0  0  0  0  0  0  0  0
   -1.4853   -1.0507   -1.7898 C   0  0  0  0  0  0  0  0  0  0  0  0
   -2.4562   -1.1528   -0.6410 C   0  0  0  0  0  0  0  0  0  0  0  0
   -2.1048   -0.1228    0.3978 C   0  0  0  0  0  0  0  0  0  0  0  0
   -2.4626    1.2613   -0.0692 C   0  0  0  0  0  0  0  0  0  0  0  0
   -2.1342    2.1428   -1.1370 N   0  0  0  0  0  0  0  0  0  0  0  0
   -3.2803    2.0146    0.5394 O   0  0  0  0  0  0  0  0  0  0  0  0
   -0.6688   -0.1315    0.8054 C   0  0  0  0  0  0  0  0  0  0  0  0
  1  2  1  0
  2  3  1  0
  3  4  1  0
  4  5  2  0
  4  6  1  0
  6  7  1  0
  7  8  1  0
  8  9  1  0
  9 10  1  0
 10 11  1  0
 11 12  1  0
 11 13  2  0
 10 14  1  0
 14  6  1  0
M  END
>  <ref_url>  (1) 
https://mwinokan.github.io/2A_HIPPO

>  <submitter_name>  (1) 
Max Winokan

>  <submitter_email>  (1) 
max.winokan@diamond.ac.uk

>  <submitter_institution>  (1) 
DLS

>  <generation_date>  (1) 
2024-11-28

>  <method>  (1) 
HIPPO_Recipe_1LPVPY0

>  <exports>  (1) 
exports

>  <smiles>  (1) 
smiles

>  <ref_mols>  (1) 
fragment inspirations

>  <original ID>  (1) 
original ID

$$$$
DQWUNIXDDNPLQU-FQEVSTJZSA-N
     RDKit          3D

 29 31  0  0  0  0  0  0  0  0999 V2000
    6.0190   10.2927   27.0172 C   0  0  0  0  0  0  0  0  0  0  0  0
    7.0979   10.5747   26.0384 C   0  0  0  0  0  0  0  0  0  0  0  0
    7.5219    9.6061   25.2256 N   0  0  0  0  0  0  0  0  0  0  0  0
    8.4638   10.1891   24.4597 N   0  0  0  0  0  0  0  0  0  0  0  0
    9.1588    9.3950   23.4732 C   0  0  0  0  0  0  0  0  0  0  0  0
    8.6664   11.5087   24.7719 C   0  0  0  0  0  0  0  0  0  0  0  0
    9.6344   12.3835   24.0612 C   0  0  0  0  0  0  0  0  0  0  0  0
    7.8288   11.7751   25.8428 C   0  0  0  0  0  0  0  0  0  0  0  0
    7.7669   13.0161   26.6567 C   0  0  0  0  0  0  0  0  0  0  0  0
    6.9952   14.1939   26.1231 C   0  0  0  0  0  0  0  0  0  0  0  0
    7.1551   15.2898   26.6659 O   0  0  0  0  0  0  0  0  0  0  0  0
    6.1290   13.9893   25.0858 N   0  0  0  0  0  0  0  0  0  0  0  0
    5.2178   15.0380   24.6414 C   0  0  1  0  0  0  0  0  0  0  0  0
    5.0521   15.0540   23.1067 C   0  0  0  0  0  0  0  0  0  0  0  0
    6.2697   15.4487   22.4220 N   0  0  0  0  0  0  0  0  0  0  0  0
    7.2130   14.5590   21.9849 C   0  0  0  0  0  0  0  0  0  0  0  0
    7.0429   13.3403   22.0400 O   0  0  0  0  0  0  0  0  0  0  0  0
    8.4909   15.1860   21.4022 C   0  0  0  0  0  0  0  0  0  0  0  0
    8.4307   16.6562   21.3619 N   0  0  0  0  0  0  0  0  0  0  0  0
    3.8708   14.9701   25.3514 C   0  0  0  0  0  0  0  0  0  0  0  0
    3.0718   16.1215   25.4009 C   0  0  0  0  0  0  0  0  0  0  0  0
    1.8296   16.1140   26.0359 C   0  0  0  0  0  0  0  0  0  0  0  0
    1.3722   14.9616   26.6839 C   0  0  0  0  0  0  0  0  0  0  0  0
    0.1417   14.9466   27.3565 C   0  0  0  0  0  0  0  0  0  0  0  0
   -0.2775   13.8060   28.0391 C   0  0  0  0  0  0  0  0  0  0  0  0
    0.5278   12.6710   28.0619 C   0  0  0  0  0  0  0  0  0  0  0  0
    1.7458   12.6663   27.3840 C   0  0  0  0  0  0  0  0  0  0  0  0
    2.1774   13.8007   26.6793 C   0  0  0  0  0  0  0  0  0  0  0  0
    3.4001   13.8107   25.9857 C   0  0  0  0  0  0  0  0  0  0  0  0
  1  2  1  0
  2  3  2  0
  3  4  1  0
  4  5  1  0
  4  6  1  0
  6  7  1  0
  6  8  2  0
  8  9  1  0
  9 10  1  0
 10 11  2  0
 10 12  1  0
 12 13  1  0
 13 14  1  6
 14 15  1  0
 15 16  1  0
 16 17  2  0
 16 18  1  0
 18 19  1  0
 13 20  1  0
 20 21  2  0
 21 22  1  0
 22 23  2  0
 23 24  1  0
 24 25  2  0
 25 26  1  0
 26 27  2  0
 27 28  1  0
 28 29  2  0
  8  2  1  0
 29 20  1  0
 28 23  1  0
M  END
>  <distance_score>  (1) 
nan

>  <ref_pdb>  (1) 
A1346a

>  <ref_mols>  (1) 
A1346a

>  <alias>  (1) 
None

>  <original SMILES>  (1) 
Cc1nn(C)c(C)c1CC(=O)N[C@@H](CNC(=O)CN)c1ccc2ccccc2c1

>  <inchikey>  (1) 
DQWUNIXDDNPLQU-FQEVSTJZSA-N

>  <exports>  (1) 
['/opt/xchem-fragalysis-2/maxwin/2A_HIPPO/hippo/A71EV2A_10_recipes/Recipe_1LPUPHX_poses.sdf', '/opt/xchem-fragalysis-2/maxwin/2A_HIPPO/hippo/A71EV2A_10_recipes/Recipe_1LPVPY0_poses.sdf']

>  <original ID>  (1) 
DQWUNIXDDNPLQU-FQEVSTJZSA-N

>  <energy_score>  (1) 
nan

>  <tags>  (1) 
['Syndirella scaffold']

>  <HIPPO ID>  (1) 
168

>  <name>  (1) 
DQWUNIXDDNPLQU-FQEVSTJZSA-N

$$$$
YOZGXEFFSUYIHZ-UHFFFAOYSA-N
     RDKit          3D

 15 15  0  0  0  0  0  0  0  0999 V2000
   11.8089   16.6236   22.6298 N   0  0  0  0  0  0  0  0  0  0  0  0
   11.8820   15.4738   22.5043 C   0  0  0  0  0  0  0  0  0  0  0  0
   11.9108   14.0267   22.3520 C   0  0  0  0  0  0  0  0  0  0  0  0
   11.0159   13.4094   23.3816 C   0  0  0  0  0  0  0  0  0  0  0  0
   10.9521   13.8380   24.5356 O   0  0  0  0  0  0  0  0  0  0  0  0
   10.3001   12.3035   22.9536 N   0  0  0  0  0  0  0  0  0  0  0  0
    9.2355   11.8331   23.7325 C   0  0  0  0  0  0  0  0  0  0  0  0
    8.9696   10.4804   23.8666 C   0  0  0  0  0  0  0  0  0  0  0  0
    7.9506   10.0941   24.7428 C   0  0  0  0  0  0  0  0  0  0  0  0
    7.1943   11.0781   25.3947 C   0  0  0  0  0  0  0  0  0  0  0  0
    6.0480   10.8317   26.3313 C   0  0  0  0  0  0  0  0  0  0  0  0
    5.6961    9.5561   26.6110 N   0  0  0  0  0  0  0  0  0  0  0  0
    5.4063   11.7301   26.8666 O   0  0  0  0  0  0  0  0  0  0  0  0
    7.4221   12.3894   25.2244 N   0  0  0  0  0  0  0  0  0  0  0  0
    8.4229   12.7366   24.4123 C   0  0  0  0  0  0  0  0  0  0  0  0
  1  2  3  0
  2  3  1  0
  3  4  1  0
  4  5  2  0
  4  6  1  0
  6  7  1  0
  7  8  2  0
  8  9  1  0
  9 10  2  0
 10 11  1  0
 11 12  1  0
 11 13  2  0
 10 14  1  0
 14 15  2  0
 15  7  1  0
M  END
>  <distance_score>  (2) 
nan

>  <ref_pdb>  (2) 
A0310a

>  <ref_mols>  (2) 
A0556a,A0310a

>  <alias>  (2) 
None

>  <original SMILES>  (2) 
N#CCC(=O)Nc1ccc(C(N)=O)nc1

>  <inchikey>  (2) 
YOZGXEFFSUYIHZ-UHFFFAOYSA-N

>  <exports>  (2) 
['/opt/xchem-fragalysis-2/maxwin/2A_HIPPO/hippo/A71EV2A_10_recipes/Recipe_1LPUPHX_poses.sdf', '/opt/xchem-fragalysis-2/maxwin/2A_HIPPO/hippo/A71EV2A_10_recipes/Recipe_1LPVPY0_poses.sdf']

>  <original ID>  (2) 
YOZGXEFFSUYIHZ-UHFFFAOYSA-N

>  <energy_score>  (2) 
nan

>  <tags>  (2) 
['Syndirella scaffold']

>  <HIPPO ID>  (2) 
197

>  <name>  (2) 
YOZGXEFFSUYIHZ-UHFFFAOYSA-N

$$$$
BKBFLODZEQEWBQ-FQEVSTJZSA-N
     RDKit          3D

 29 31  0  0  0  0  0  0  0  0999 V2000
    6.0003   10.2873   27.0183 C   0  0  0  0  0  0  0  0  0  0  0  0
    7.0839   10.5670   26.0442 C   0  0  0  0  0  0  0  0  0  0  0  0
    7.5141    9.5962   25.2376 N   0  0  0  0  0  0  0  0  0  0  0  0
    8.4586   10.1782   24.4739 N   0  0  0  0  0  0  0  0  0  0  0  0
    9.1538    9.3853   23.4861 C   0  0  0  0  0  0  0  0  0  0  0  0
    8.6619   11.4977   24.7874 C   0  0  0  0  0  0  0  0  0  0  0  0
    9.6398   12.3677   24.0856 C   0  0  0  0  0  0  0  0  0  0  0  0
    7.8135   11.7679   25.8488 C   0  0  0  0  0  0  0  0  0  0  0  0
    7.7398   13.0117   26.6575 C   0  0  0  0  0  0  0  0  0  0  0  0
    7.0009   14.1962   26.0930 C   0  0  0  0  0  0  0  0  0  0  0  0
    7.1844   15.2994   26.6125 O   0  0  0  0  0  0  0  0  0  0  0  0
    6.1359   13.9910   25.0546 N   0  0  0  0  0  0  0  0  0  0  0  0
    5.2281   15.0419   24.6051 C   0  0  1  0  0  0  0  0  0  0  0  0
    5.0718   15.0583   23.0677 C   0  0  0  0  0  0  0  0  0  0  0  0
    6.3013   15.4477   22.3922 N   0  0  0  0  0  0  0  0  0  0  0  0
    7.2494   14.5478   21.9881 C   0  0  0  0  0  0  0  0  0  0  0  0
    7.0597   13.3314   22.0849 O   0  0  0  0  0  0  0  0  0  0  0  0
    8.5625   15.0942   21.4446 C   0  0  0  0  0  0  0  0  0  0  0  0
    8.5252   16.8354   21.1384 Cl  0  0  0  0  0  0  0  0  0  0  0  0
    3.8807   14.9767   25.3152 C   0  0  0  0  0  0  0  0  0  0  0  0
    3.0861   16.1306   25.3695 C   0  0  0  0  0  0  0  0  0  0  0  0
    1.8459   16.1274   26.0091 C   0  0  0  0  0  0  0  0  0  0  0  0
    1.3861   14.9766   26.6582 C   0  0  0  0  0  0  0  0  0  0  0  0
    0.1577   14.9659   27.3350 C   0  0  0  0  0  0  0  0  0  0  0  0
   -0.2635   13.8269   28.0188 C   0  0  0  0  0  0  0  0  0  0  0  0
    0.5381   12.6893   28.0392 C   0  0  0  0  0  0  0  0  0  0  0  0
    1.7539   12.6807   27.3572 C   0  0  0  0  0  0  0  0  0  0  0  0
    2.1870   13.8131   26.6501 C   0  0  0  0  0  0  0  0  0  0  0  0
    3.4071   13.8190   25.9510 C   0  0  0  0  0  0  0  0  0  0  0  0
  1  2  1  0
  2  3  2  0
  3  4  1  0
  4  5  1  0
  4  6  1  0
  6  7  1  0
  6  8  2  0
  8  9  1  0
  9 10  1  0
 10 11  2  0
 10 12  1  0
 12 13  1  0
 13 14  1  6
 14 15  1  0
 15 16  1  0
 16 17  2  0
 16 18  1  0
 18 19  1  0
 13 20  1  0
 20 21  2  0
 21 22  1  0
 22 23  2  0
 23 24  1  0
 24 25  2  0
 25 26  1  0
 26 27  2  0
 27 28  1  0
 28 29  2  0
  8  2  1  0
 29 20  1  0
 28 23  1  0
M  END
>  <distance_score>  (3) 
nan

>  <ref_pdb>  (3) 
A1346a

>  <ref_mols>  (3) 
A1346a

>  <alias>  (3) 
None

>  <original SMILES>  (3) 
Cc1nn(C)c(C)c1CC(=O)N[C@@H](CNC(=O)CCl)c1ccc2ccccc2c1

>  <inchikey>  (3) 
BKBFLODZEQEWBQ-FQEVSTJZSA-N

>  <exports>  (3) 
['/opt/xchem-fragalysis-2/maxwin/2A_HIPPO/hippo/A71EV2A_10_recipes/Recipe_1LPUPHX_poses.sdf', '/opt/xchem-fragalysis-2/maxwin/2A_HIPPO/hippo/A71EV2A_10_recipes/Recipe_1LPVPY0_poses.sdf']

>  <original ID>  (3) 
BKBFLODZEQEWBQ-FQEVSTJZSA-N

>  <energy_score>  (3) 
nan

>  <tags>  (3) 
['Syndirella scaffold']

>  <HIPPO ID>  (3) 
214

>  <name>  (3) 
BKBFLODZEQEWBQ-FQEVSTJZSA-N

$$$$
NZVJBVJDSSUPIL-ZCFIWIBFSA-N
     RDKit          3D

 18 18  0  0  0  0  0  0  0  0999 V2000
    9.1742    9.2503   23.1545 C   0  0  0  0  0  0  0  0  0  0  0  0
    8.8899   10.6044   23.4864 O   0  0  0  0  0  0  0  0  0  0  0  0
    7.8426   10.7639   24.3161 C   0  0  0  0  0  0  0  0  0  0  0  0
    6.9980    9.8311   24.9217 C   0  0  0  0  0  0  0  0  0  0  0  0
    6.1005   10.5653   25.6560 C   0  0  0  0  0  0  0  0  0  0  0  0
    5.0259   10.0916   26.3887 N   0  0  0  0  0  0  0  0  0  0  0  0
    4.6981   10.6234   27.6218 C   0  0  0  0  0  0  0  0  0  0  0  0
    5.4036   11.3984   28.2581 O   0  0  0  0  0  0  0  0  0  0  0  0
    3.3426   10.1460   28.1053 C   0  0  0  0  0  0  0  0  0  0  0  0
    2.9951   10.4971   29.5587 C   0  0  1  0  0  0  0  0  0  0  0  0
    2.9527   12.0049   29.8272 C   0  0  0  0  0  0  0  0  0  0  0  0
    1.6294    9.9059   29.8804 C   0  0  0  0  0  0  0  0  0  0  0  0
    0.6611   10.4806   29.1319 F   0  0  0  0  0  0  0  0  0  0  0  0
    1.5945    8.5778   29.6297 F   0  0  0  0  0  0  0  0  0  0  0  0
    1.3103   10.0805   31.1797 F   0  0  0  0  0  0  0  0  0  0  0  0
    6.4458   11.8831   25.4316 N   0  0  0  0  0  0  0  0  0  0  0  0
    5.7222   13.0772   25.7995 C   0  0  0  0  0  0  0  0  0  0  0  0
    7.5309   12.0174   24.6284 N   0  0  0  0  0  0  0  0  0  0  0  0
  1  2  1  0
  2  3  1  0
  3  4  1  0
  4  5  2  0
  5  6  1  0
  6  7  1  0
  7  8  2  0
  7  9  1  0
  9 10  1  0
 10 11  1  6
 10 12  1  0
 12 13  1  0
 12 14  1  0
 12 15  1  0
  5 16  1  0
 16 17  1  0
 16 18  1  0
 18  3  2  0
M  END
>  <distance_score>  (4) 
nan

>  <ref_pdb>  (4) 
A1445a

>  <ref_mols>  (4) 
A1445a

>  <alias>  (4) 
None

>  <original SMILES>  (4) 
COc1cc(NC(=O)C[C@@H](C)C(F)(F)F)n(C)n1

>  <inchikey>  (4) 
NZVJBVJDSSUPIL-ZCFIWIBFSA-N

>  <exports>  (4) 
['/opt/xchem-fragalysis-2/maxwin/2A_HIPPO/hippo/A71EV2A_10_recipes/Recipe_1LPUPHX_poses.sdf', '/opt/xchem-fragalysis-2/maxwin/2A_HIPPO/hippo/A71EV2A_10_recipes/Recipe_1LPVPY0_poses.sdf']

>  <original ID>  (4) 
NZVJBVJDSSUPIL-ZCFIWIBFSA-N

>  <energy_score>  (4) 
nan

>  <tags>  (4) 
['Syndirella scaffold']

>  <HIPPO ID>  (4) 
215

>  <name>  (4) 
NZVJBVJDSSUPIL-ZCFIWIBFSA-N

$$$$
AOLHRJZGGWAHNY-UHFFFAOYSA-N
     RDKit          3D

 23 25  0  0  0  0  0  0  0  0999 V2000
    7.9666   11.7777   32.0986 C   0  0  0  0  0  0  0  0  0  0  0  0
    7.2748   11.4837   30.7963 C   0  0  0  0  0  0  0  0  0  0  0  0
    6.7508   10.2023   30.5717 C   0  0  0  0  0  0  0  0  0  0  0  0
    6.1239    9.8854   29.3653 C   0  0  0  0  0  0  0  0  0  0  0  0
    6.0033   10.8416   28.3539 C   0  0  0  0  0  0  0  0  0  0  0  0
    5.3502   10.4768   27.0424 C   0  0  0  0  0  0  0  0  0  0  0  0
    6.2890   10.0043   26.0464 N   0  0  0  0  0  0  0  0  0  0  0  0
    7.1490   10.8212   25.3507 C   0  0  0  0  0  0  0  0  0  0  0  0
    6.8849   12.1632   25.1584 C   0  0  0  0  0  0  0  0  0  0  0  0
    7.7992   12.9696   24.4971 C   0  0  0  0  0  0  0  0  0  0  0  0
    8.9875   12.4598   23.9915 C   0  0  0  0  0  0  0  0  0  0  0  0
    9.8985   13.3830   23.4784 N   0  0  0  0  0  0  0  0  0  0  0  0
   11.3386   13.1425   23.4970 C   0  0  0  0  0  0  0  0  0  0  0  0
   12.0521   14.5020   23.3912 C   0  0  0  0  0  0  0  0  0  0  0  0
   11.6840   15.2053   22.1858 N   0  0  0  0  0  0  0  0  0  0  0  0
   10.4350   15.0903   21.6359 C   0  0  0  0  0  0  0  0  0  0  0  0
   10.1301   15.7375   20.6346 O   0  0  0  0  0  0  0  0  0  0  0  0
    9.4434   14.0988   22.2559 C   0  0  0  0  0  0  0  0  0  0  0  0
    9.1195   11.0772   24.1290 C   0  0  0  0  0  0  0  0  0  0  0  0
    8.2419   10.2610   24.8006 N   0  0  0  0  0  0  0  0  0  0  0  0
    6.5048   12.1315   28.5893 C   0  0  0  0  0  0  0  0  0  0  0  0
    7.1571   12.4601   29.7900 C   0  0  0  0  0  0  0  0  0  0  0  0
    7.6917   13.8546   29.9761 C   0  0  0  0  0  0  0  0  0  0  0  0
  1  2  1  0
  2  3  2  0
  3  4  1  0
  4  5  2  0
  5  6  1  0
  6  7  1  0
  7  8  1  0
  8  9  2  0
  9 10  1  0
 10 11  2  0
 11 12  1  0
 12 13  1  0
 13 14  1  0
 14 15  1  0
 15 16  1  0
 16 17  2  0
 16 18  1  0
 11 19  1  0
 19 20  2  0
  5 21  1  0
 21 22  2  0
 22 23  1  0
 22  2  1  0
 20  8  1  0
 18 12  1  0
M  END
>  <distance_score>  (5) 
1.494676

>  <ref_pdb>  (5) 
A0310a

>  <ref_mols>  (5) 
A0528a,A0365a

>  <alias>  (5) 
None

>  <original SMILES>  (5) 
Cc1ccc(CNc2ccc(N3CCNC(=O)C3)cn2)cc1C

>  <inchikey>  (5) 
AOLHRJZGGWAHNY-UHFFFAOYSA-N

>  <exports>  (5) 
['/opt/xchem-fragalysis-2/maxwin/2A_HIPPO/hippo/A71EV2A_10_recipes/Recipe_1LPUPHX_poses.sdf', '/opt/xchem-fragalysis-2/maxwin/2A_HIPPO/hippo/A71EV2A_10_recipes/Recipe_1LPVPY0_poses.sdf']

>  <original ID>  (5) 
AOLHRJZGGWAHNY-UHFFFAOYSA-N

>  <energy_score>  (5) 
-27.949495

>  <tags>  (5) 
['Syndirella scaffold']

>  <HIPPO ID>  (5) 
26579

>  <name>  (5) 
AOLHRJZGGWAHNY-UHFFFAOYSA-N

$$$$
WFBORCQHONCYCF-UHFFFAOYSA-N
     RDKit          3D

 24 26  0  0  0  0  0  0  0  0999 V2000
    6.7626    9.2118   31.6921 C   0  0  0  0  0  0  0  0  0  0  0  0
    6.6733   10.2489   30.6062 C   0  0  0  0  0  0  0  0  0  0  0  0
    6.0707    9.9193   29.3802 C   0  0  0  0  0  0  0  0  0  0  0  0
    5.9645   10.8595   28.3449 C   0  0  0  0  0  0  0  0  0  0  0  0
    5.3517   10.4609   27.0203 C   0  0  0  0  0  0  0  0  0  0  0  0
    6.3386   10.0045   26.0692 N   0  0  0  0  0  0  0  0  0  0  0  0
    7.1716   10.8177   25.3442 C   0  0  0  0  0  0  0  0  0  0  0  0
    6.8959   12.1563   25.1448 C   0  0  0  0  0  0  0  0  0  0  0  0
    7.7981   12.9659   24.4711 C   0  0  0  0  0  0  0  0  0  0  0  0
    8.9886   12.4622   23.9665 C   0  0  0  0  0  0  0  0  0  0  0  0
    9.8955   13.3889   23.4538 N   0  0  0  0  0  0  0  0  0  0  0  0
   11.3361   13.1558   23.4908 C   0  0  0  0  0  0  0  0  0  0  0  0
   12.0439   14.5183   23.3934 C   0  0  0  0  0  0  0  0  0  0  0  0
   11.6853   15.2189   22.1839 N   0  0  0  0  0  0  0  0  0  0  0  0
   10.4366   15.1088   21.6301 C   0  0  0  0  0  0  0  0  0  0  0  0
   10.1333   15.7755   20.6417 O   0  0  0  0  0  0  0  0  0  0  0  0
    9.4491   14.0992   22.2258 C   0  0  0  0  0  0  0  0  0  0  0  0
    9.1322   11.0816   24.1107 C   0  0  0  0  0  0  0  0  0  0  0  0
    8.2671   10.2633   24.7938 N   0  0  0  0  0  0  0  0  0  0  0  0
    6.4487   12.1568   28.5626 C   0  0  0  0  0  0  0  0  0  0  0  0
    7.0731   12.4919   29.7648 C   0  0  0  0  0  0  0  0  0  0  0  0
    7.2052   11.5395   30.7805 C   0  0  0  0  0  0  0  0  0  0  0  0
    7.9129   11.9014   31.9758 C   0  0  0  0  0  0  0  0  0  0  0  0
    8.5107   12.1809   32.9301 N   0  0  0  0  0  0  0  0  0  0  0  0
  1  2  1  0
  2  3  2  0
  3  4  1  0
  4  5  1  0
  5  6  1  0
  6  7  1  0
  7  8  2  0
  8  9  1  0
  9 10  2  0
 10 11  1  0
 11 12  1  0
 12 13  1  0
 13 14  1  0
 14 15  1  0
 15 16  2  0
 15 17  1  0
 10 18  1  0
 18 19  2  0
  4 20  2  0
 20 21  1  0
 21 22  2  0
 22 23  1  0
 23 24  3  0
 22  2  1  0
 19  7  1  0
 17 11  1  0
M  END
>  <distance_score>  (6) 
1.492411

>  <ref_pdb>  (6) 
A0310a

>  <ref_mols>  (6) 
A0528a,A0365a

>  <alias>  (6) 
None

>  <original SMILES>  (6) 
Cc1cc(CNc2ccc(N3CCNC(=O)C3)cn2)ccc1C#N

>  <inchikey>  (6) 
WFBORCQHONCYCF-UHFFFAOYSA-N

>  <exports>  (6) 
['/opt/xchem-fragalysis-2/maxwin/2A_HIPPO/hippo/A71EV2A_10_recipes/Recipe_1LPVPY0_poses.sdf']

>  <original ID>  (6) 
WFBORCQHONCYCF-UHFFFAOYSA-N

>  <energy_score>  (6) 
-29.310909

>  <tags>  (6) 
[]

>  <HIPPO ID>  (6) 
26615

>  <name>  (6) 
WFBORCQHONCYCF-UHFFFAOYSA-N

$$$$
RKFKTOPURZTVOO-UHFFFAOYSA-N
     RDKit          3D

 24 26  0  0  0  0  0  0  0  0999 V2000
    6.7150    9.2164   31.6968 C   0  0  0  0  0  0  0  0  0  0  0  0
    6.6845   10.2617   30.6144 C   0  0  0  0  0  0  0  0  0  0  0  0
    6.0786    9.9338   29.3871 C   0  0  0  0  0  0  0  0  0  0  0  0
    5.9843   10.8628   28.3456 C   0  0  0  0  0  0  0  0  0  0  0  0
    5.3612   10.4672   27.0269 C   0  0  0  0  0  0  0  0  0  0  0  0
    6.3366   10.0052   26.0659 N   0  0  0  0  0  0  0  0  0  0  0  0
    7.1745   10.8175   25.3443 C   0  0  0  0  0  0  0  0  0  0  0  0
    6.9013   12.1569   25.1466 C   0  0  0  0  0  0  0  0  0  0  0  0
    7.8084   12.9668   24.4808 C   0  0  0  0  0  0  0  0  0  0  0  0
    8.9987   12.4621   23.9761 C   0  0  0  0  0  0  0  0  0  0  0  0
    9.9064   13.3891   23.4639 N   0  0  0  0  0  0  0  0  0  0  0  0
   11.3465   13.1537   23.4861 C   0  0  0  0  0  0  0  0  0  0  0  0
   12.0538   14.5162   23.3821 C   0  0  0  0  0  0  0  0  0  0  0  0
   11.6854   15.2174   22.1754 N   0  0  0  0  0  0  0  0  0  0  0  0
   10.4367   15.0989   21.6242 C   0  0  0  0  0  0  0  0  0  0  0  0
   10.1317   15.7491   20.6247 O   0  0  0  0  0  0  0  0  0  0  0  0
    9.4493   14.1001   22.2392 C   0  0  0  0  0  0  0  0  0  0  0  0
    9.1379   11.0806   24.1152 C   0  0  0  0  0  0  0  0  0  0  0  0
    8.2701   10.2618   24.7951 N   0  0  0  0  0  0  0  0  0  0  0  0
    6.4870   12.1513   28.5585 C   0  0  0  0  0  0  0  0  0  0  0  0
    7.1209   12.4857   29.7594 C   0  0  0  0  0  0  0  0  0  0  0  0
    7.8028   14.2580   29.9043 Br  0  0  0  0  0  0  0  0  0  0  0  0
    7.2535   11.5429   30.7961 C   0  0  0  0  0  0  0  0  0  0  0  0
    7.9579   11.9118   32.0769 C   0  0  0  0  0  0  0  0  0  0  0  0
  1  2  1  0
  2  3  2  0
  3  4  1  0
  4  5  1  0
  5  6  1  0
  6  7  1  0
  7  8  2  0
  8  9  1  0
  9 10  2  0
 10 11  1  0
 11 12  1  0
 12 13  1  0
 13 14  1  0
 14 15  1  0
 15 16  2  0
 15 17  1  0
 10 18  1  0
 18 19  2  0
  4 20  2  0
 20 21  1  0
 21 22  1  0
 21 23  2  0
 23 24  1  0
 23  2  1  0
 19  7  1  0
 17 11  1  0
M  END
>  <distance_score>  (7) 
1.526735

>  <ref_pdb>  (7) 
A0310a

>  <ref_mols>  (7) 
A0528a,A0365a

>  <alias>  (7) 
None

>  <original SMILES>  (7) 
Cc1cc(CNc2ccc(N3CCNC(=O)C3)cn2)cc(Br)c1C

>  <inchikey>  (7) 
RKFKTOPURZTVOO-UHFFFAOYSA-N

>  <exports>  (7) 
['/opt/xchem-fragalysis-2/maxwin/2A_HIPPO/hippo/A71EV2A_10_recipes/Recipe_1LPVPY0_poses.sdf']

>  <original ID>  (7) 
RKFKTOPURZTVOO-UHFFFAOYSA-N

>  <energy_score>  (7) 
-30.137903

>  <tags>  (7) 
[]

>  <HIPPO ID>  (7) 
26618

>  <name>  (7) 
RKFKTOPURZTVOO-UHFFFAOYSA-N

$$$$
QADDHVNVTIQSDO-UHFFFAOYSA-N
     RDKit          3D

 24 26  0  0  0  0  0  0  0  0999 V2000
    8.0852   11.8043   32.1383 C   0  0  0  0  0  0  0  0  0  0  0  0
    7.3411   11.4994   30.8681 C   0  0  0  0  0  0  0  0  0  0  0  0
    6.8170   10.2132   30.6733 C   0  0  0  0  0  0  0  0  0  0  0  0
    6.1363    9.8877   29.4998 C   0  0  0  0  0  0  0  0  0  0  0  0
    5.9608   10.8398   28.4936 C   0  0  0  0  0  0  0  0  0  0  0  0
    5.2551   10.4613   27.2147 C   0  0  0  0  0  0  0  0  0  0  0  0
    6.1501    9.9063   26.2264 N   0  0  0  0  0  0  0  0  0  0  0  0
    7.0466   10.6380   25.4889 C   0  0  0  0  0  0  0  0  0  0  0  0
    6.8859   11.9934   25.2890 C   0  0  0  0  0  0  0  0  0  0  0  0
    7.7998   12.7035   24.5289 C   0  0  0  0  0  0  0  0  0  0  0  0
    8.8685   12.0704   23.9097 C   0  0  0  0  0  0  0  0  0  0  0  0
    9.8173   12.7916   23.1520 N   0  0  0  0  0  0  0  0  0  0  0  0
   10.9837   13.1887   23.9549 C   0  0  0  0  0  0  0  0  0  0  0  0
   12.0295   13.8583   23.0741 C   0  0  0  0  0  0  0  0  0  0  0  0
   11.5195   15.0160   22.3822 N   0  0  0  0  0  0  0  0  0  0  0  0
   12.4952   15.8481   21.7346 C   0  0  0  0  0  0  0  0  0  0  0  0
   10.2901   14.8849   21.7344 C   0  0  0  0  0  0  0  0  0  0  0  0
    9.9670   15.5853   20.7763 O   0  0  0  0  0  0  0  0  0  0  0  0
    9.2685   13.9582   22.3933 C   0  0  0  0  0  0  0  0  0  0  0  0
    8.9308   10.6889   24.1234 C   0  0  0  0  0  0  0  0  0  0  0  0
    8.0615    9.9750   24.9052 N   0  0  0  0  0  0  0  0  0  0  0  0
    6.4655   12.1335   28.6982 C   0  0  0  0  0  0  0  0  0  0  0  0
    7.1721   12.4707   29.8643 C   0  0  0  0  0  0  0  0  0  0  0  0
    7.7048   13.8694   30.0201 C   0  0  0  0  0  0  0  0  0  0  0  0
  1  2  1  0
  2  3  2  0
  3  4  1  0
  4  5  2  0
  5  6  1  0
  6  7  1  0
  7  8  1  0
  8  9  2  0
  9 10  1  0
 10 11  2  0
 11 12  1  0
 12 13  1  0
 13 14  1  0
 14 15  1  0
 15 16  1  0
 15 17  1  0
 17 18  2  0
 17 19  1  0
 11 20  1  0
 20 21  2  0
  5 22  1  0
 22 23  2  0
 23 24  1  0
 23  2  1  0
 21  8  1  0
 19 12  1  0
M  END
>  <distance_score>  (8) 
1.420319

>  <ref_pdb>  (8) 
A0310a

>  <ref_mols>  (8) 
A0528a,A0365a

>  <alias>  (8) 
None

>  <original SMILES>  (8) 
Cc1ccc(CNc2ccc(N3CCN(C)C(=O)C3)cn2)cc1C

>  <inchikey>  (8) 
QADDHVNVTIQSDO-UHFFFAOYSA-N

>  <exports>  (8) 
['/opt/xchem-fragalysis-2/maxwin/2A_HIPPO/hippo/A71EV2A_10_recipes/Recipe_1LPUPHX_poses.sdf', '/opt/xchem-fragalysis-2/maxwin/2A_HIPPO/hippo/A71EV2A_10_recipes/Recipe_1LPVPY0_poses.sdf']

>  <original ID>  (8) 
QADDHVNVTIQSDO-UHFFFAOYSA-N

>  <energy_score>  (8) 
-23.819085

>  <tags>  (8) 
[]

>  <HIPPO ID>  (8) 
26666

>  <name>  (8) 
QADDHVNVTIQSDO-UHFFFAOYSA-N

$$$$
JQZFRFFRYHIAGS-UHFFFAOYSA-N
     RDKit          3D

 25 27  0  0  0  0  0  0  0  0999 V2000
    6.8413    9.2005   31.7877 C   0  0  0  0  0  0  0  0  0  0  0  0
    6.7536   10.2430   30.7063 C   0  0  0  0  0  0  0  0  0  0  0  0
    6.0853    9.9097   29.5149 C   0  0  0  0  0  0  0  0  0  0  0  0
    5.9305   10.8361   28.4802 C   0  0  0  0  0  0  0  0  0  0  0  0
    5.2153   10.4394   27.2121 C   0  0  0  0  0  0  0  0  0  0  0  0
    6.1024    9.9333   26.1896 N   0  0  0  0  0  0  0  0  0  0  0  0
    6.9686   10.7357   25.4840 C   0  0  0  0  0  0  0  0  0  0  0  0
    6.7040   12.0744   25.2721 C   0  0  0  0  0  0  0  0  0  0  0  0
    7.6213   12.8694   24.6109 C   0  0  0  0  0  0  0  0  0  0  0  0
    8.8085   12.3454   24.1228 C   0  0  0  0  0  0  0  0  0  0  0  0
    9.7322   13.2578   23.6189 N   0  0  0  0  0  0  0  0  0  0  0  0
   11.1507   12.9467   23.5949 C   0  0  0  0  0  0  0  0  0  0  0  0
   11.9270   14.2573   23.4977 C   0  0  0  0  0  0  0  0  0  0  0  0
   11.5893   14.9601   22.2820 N   0  0  0  0  0  0  0  0  0  0  0  0
   12.5476   15.8603   21.7151 C   0  0  0  0  0  0  0  0  0  0  0  0
   10.3031   14.9510   21.7741 C   0  0  0  0  0  0  0  0  0  0  0  0
    9.9735   15.6400   20.8086 O   0  0  0  0  0  0  0  0  0  0  0  0
    9.2767   14.0266   22.4311 C   0  0  0  0  0  0  0  0  0  0  0  0
    8.9414   10.9636   24.2773 C   0  0  0  0  0  0  0  0  0  0  0  0
    8.0619   10.1604   24.9547 N   0  0  0  0  0  0  0  0  0  0  0  0
    6.4437   12.1258   28.6594 C   0  0  0  0  0  0  0  0  0  0  0  0
    7.1383   12.4661   29.8238 C   0  0  0  0  0  0  0  0  0  0  0  0
    7.8162   14.2425   29.9298 Br  0  0  0  0  0  0  0  0  0  0  0  0
    7.3243   11.5276   30.8559 C   0  0  0  0  0  0  0  0  0  0  0  0
    8.0832   11.9056   32.1022 C   0  0  0  0  0  0  0  0  0  0  0  0
  1  2  1  0
  2  3  2  0
  3  4  1  0
  4  5  1  0
  5  6  1  0
  6  7  1  0
  7  8  2  0
  8  9  1  0
  9 10  2  0
 10 11  1  0
 11 12  1  0
 12 13  1  0
 13 14  1  0
 14 15  1  0
 14 16  1  0
 16 17  2  0
 16 18  1  0
 10 19  1  0
 19 20  2  0
  4 21  2  0
 21 22  1  0
 22 23  1  0
 22 24  2  0
 24 25  1  0
 24  2  1  0
 20  7  1  0
 18 11  1  0
M  END
>  <distance_score>  (9) 
1.527171

>  <ref_pdb>  (9) 
A0310a

>  <ref_mols>  (9) 
A0528a,A0365a

>  <alias>  (9) 
None

>  <original SMILES>  (9) 
Cc1cc(CNc2ccc(N3CCN(C)C(=O)C3)cn2)cc(Br)c1C

>  <inchikey>  (9) 
JQZFRFFRYHIAGS-UHFFFAOYSA-N

>  <exports>  (9) 
['/opt/xchem-fragalysis-2/maxwin/2A_HIPPO/hippo/A71EV2A_10_recipes/Recipe_1LPVPY0_poses.sdf']

>  <original ID>  (9) 
JQZFRFFRYHIAGS-UHFFFAOYSA-N

>  <energy_score>  (9) 
-29.303037

>  <tags>  (9) 
[]

>  <HIPPO ID>  (9) 
26766

>  <name>  (9) 
JQZFRFFRYHIAGS-UHFFFAOYSA-N

$$$$
DBYRTFKUGRHAGW-UHFFFAOYSA-N
     RDKit          3D

 25 27  0  0  0  0  0  0  0  0999 V2000
    6.8501    9.1971   31.7804 C   0  0  0  0  0  0  0  0  0  0  0  0
    6.7103   10.2385   30.7048 C   0  0  0  0  0  0  0  0  0  0  0  0
    6.0618    9.9086   29.5047 C   0  0  0  0  0  0  0  0  0  0  0  0
    5.9057   10.8517   28.4800 C   0  0  0  0  0  0  0  0  0  0  0  0
    5.2521   10.4433   27.1801 C   0  0  0  0  0  0  0  0  0  0  0  0
    6.2096    9.9028   26.2497 N   0  0  0  0  0  0  0  0  0  0  0  0
    7.0747   10.6312   25.4797 C   0  0  0  0  0  0  0  0  0  0  0  0
    6.9016   11.9839   25.2734 C   0  0  0  0  0  0  0  0  0  0  0  0
    7.7976   12.6946   24.4942 C   0  0  0  0  0  0  0  0  0  0  0  0
    8.8670   12.0657   23.8726 C   0  0  0  0  0  0  0  0  0  0  0  0
    9.8091   12.7901   23.1099 N   0  0  0  0  0  0  0  0  0  0  0  0
   10.9864   13.1629   23.9085 C   0  0  0  0  0  0  0  0  0  0  0  0
   12.0281   13.8434   23.0328 C   0  0  0  0  0  0  0  0  0  0  0  0
   11.5194   15.0159   22.3659 N   0  0  0  0  0  0  0  0  0  0  0  0
   12.4976   15.8541   21.7310 C   0  0  0  0  0  0  0  0  0  0  0  0
   10.2886   14.8971   21.7176 C   0  0  0  0  0  0  0  0  0  0  0  0
    9.9678   15.6080   20.7663 O   0  0  0  0  0  0  0  0  0  0  0  0
    9.2639   13.9694   22.3707 C   0  0  0  0  0  0  0  0  0  0  0  0
    8.9441   10.6867   24.0966 C   0  0  0  0  0  0  0  0  0  0  0  0
    8.0903    9.9726   24.8931 N   0  0  0  0  0  0  0  0  0  0  0  0
    6.3907   12.1515   28.6783 C   0  0  0  0  0  0  0  0  0  0  0  0
    7.0605   12.4875   29.8546 C   0  0  0  0  0  0  0  0  0  0  0  0
    7.2373   11.5330   30.8619 C   0  0  0  0  0  0  0  0  0  0  0  0
    7.9808   11.8988   32.0332 C   0  0  0  0  0  0  0  0  0  0  0  0
    8.6049   12.1830   32.9691 N   0  0  0  0  0  0  0  0  0  0  0  0
  1  2  1  0
  2  3  2  0
  3  4  1  0
  4  5  1  0
  5  6  1  0
  6  7  1  0
  7  8  2  0
  8  9  1  0
  9 10  2  0
 10 11  1  0
 11 12  1  0
 12 13  1  0
 13 14  1  0
 14 15  1  0
 14 16  1  0
 16 17  2  0
 16 18  1  0
 10 19  1  0
 19 20  2  0
  4 21  2  0
 21 22  1  0
 22 23  2  0
 23 24  1  0
 24 25  3  0
 23  2  1  0
 20  7  1  0
 18 11  1  0
M  END
>  <distance_score>  (10) 
1.428764

>  <ref_pdb>  (10) 
A0310a

>  <ref_mols>  (10) 
A0528a,A0365a

>  <alias>  (10) 
None

>  <original SMILES>  (10) 
Cc1cc(CNc2ccc(N3CCN(C)C(=O)C3)cn2)ccc1C#N

>  <inchikey>  (10) 
DBYRTFKUGRHAGW-UHFFFAOYSA-N

>  <exports>  (10) 
['/opt/xchem-fragalysis-2/maxwin/2A_HIPPO/hippo/A71EV2A_10_recipes/Recipe_1LPVPY0_poses.sdf']

>  <original ID>  (10) 
DBYRTFKUGRHAGW-UHFFFAOYSA-N

>  <energy_score>  (10) 
-20.492455

>  <tags>  (10) 
[]

>  <HIPPO ID>  (10) 
27197

>  <name>  (10) 
DBYRTFKUGRHAGW-UHFFFAOYSA-N

$$$$
DQWUNIXDDNPLQU-HXUWFJFHSA-N
     RDKit          3D

 29 31  0  0  0  0  0  0  0  0999 V2000
    6.0436   10.3555   27.0342 C   0  0  0  0  0  0  0  0  0  0  0  0
    7.1388   10.6143   26.0666 C   0  0  0  0  0  0  0  0  0  0  0  0
    7.5674    9.6278   25.2771 N   0  0  0  0  0  0  0  0  0  0  0  0
    8.5177   10.1927   24.5083 N   0  0  0  0  0  0  0  0  0  0  0  0
    9.1970    9.3857   23.5212 C   0  0  0  0  0  0  0  0  0  0  0  0
    8.7122   11.5213   24.7868 C   0  0  0  0  0  0  0  0  0  0  0  0
    9.6743   12.3827   24.0534 C   0  0  0  0  0  0  0  0  0  0  0  0
    7.8538   11.8195   25.8328 C   0  0  0  0  0  0  0  0  0  0  0  0
    7.7037   13.1262   26.5394 C   0  0  0  0  0  0  0  0  0  0  0  0
    6.8177   14.1607   25.8645 C   0  0  0  0  0  0  0  0  0  0  0  0
    6.8384   15.3248   26.2595 O   0  0  0  0  0  0  0  0  0  0  0  0
    5.9949   13.7017   24.8766 N   0  0  0  0  0  0  0  0  0  0  0  0
    4.9414   14.4538   24.2152 C   0  0  2  0  0  0  0  0  0  0  0  0
    5.3953   15.6446   23.3605 C   0  0  0  0  0  0  0  0  0  0  0  0
    6.6801   15.6352   22.6900 N   0  0  0  0  0  0  0  0  0  0  0  0
    7.2585   14.6129   21.9937 C   0  0  0  0  0  0  0  0  0  0  0  0
    6.7924   13.4748   21.9313 O   0  0  0  0  0  0  0  0  0  0  0  0
    8.6042   14.9858   21.3380 C   0  0  0  0  0  0  0  0  0  0  0  0
    8.7985   16.4253   21.1259 N   0  0  0  0  0  0  0  0  0  0  0  0
    3.7508   14.6959   25.1481 C   0  0  0  0  0  0  0  0  0  0  0  0
    3.0968   15.9272   25.2673 C   0  0  0  0  0  0  0  0  0  0  0  0
    1.9313   16.0584   26.0296 C   0  0  0  0  0  0  0  0  0  0  0  0
    1.4053   14.9658   26.7288 C   0  0  0  0  0  0  0  0  0  0  0  0
    0.2244   15.0742   27.4787 C   0  0  0  0  0  0  0  0  0  0  0  0
   -0.2663   13.9803   28.1908 C   0  0  0  0  0  0  0  0  0  0  0  0
    0.4255   12.7730   28.1770 C   0  0  0  0  0  0  0  0  0  0  0  0
    1.5962   12.6496   27.4306 C   0  0  0  0  0  0  0  0  0  0  0  0
    2.0874   13.7329   26.6856 C   0  0  0  0  0  0  0  0  0  0  0  0
    3.2389   13.6155   25.8899 C   0  0  0  0  0  0  0  0  0  0  0  0
  1  2  1  0
  2  3  2  0
  3  4  1  0
  4  5  1  0
  4  6  1  0
  6  7  1  0
  6  8  2  0
  8  9  1  0
  9 10  1  0
 10 11  2  0
 10 12  1  0
 12 13  1  0
 13 14  1  1
 14 15  1  0
 15 16  1  0
 16 17  2  0
 16 18  1  0
 18 19  1  0
 13 20  1  0
 20 21  2  0
 21 22  1  0
 22 23  2  0
 23 24  1  0
 24 25  2  0
 25 26  1  0
 26 27  2  0
 27 28  1  0
 28 29  2  0
  8  2  1  0
 29 20  1  0
 28 23  1  0
M  END
>  <distance_score>  (11) 
0.353998

>  <ref_pdb>  (11) 
A1346a

>  <ref_mols>  (11) 
A1346a

>  <alias>  (11) 
None

>  <original SMILES>  (11) 
Cc1nn(C)c(C)c1CC(=O)N[C@H](CNC(=O)CN)c1ccc2ccccc2c1

>  <inchikey>  (11) 
DQWUNIXDDNPLQU-HXUWFJFHSA-N

>  <exports>  (11) 
['/opt/xchem-fragalysis-2/maxwin/2A_HIPPO/hippo/A71EV2A_10_recipes/Recipe_1LPUPHX_poses.sdf', '/opt/xchem-fragalysis-2/maxwin/2A_HIPPO/hippo/A71EV2A_10_recipes/Recipe_1LPVPY0_poses.sdf']

>  <original ID>  (11) 
DQWUNIXDDNPLQU-HXUWFJFHSA-N

>  <energy_score>  (11) 
-39.368345

>  <tags>  (11) 
['Syndirella scaffold']

>  <HIPPO ID>  (11) 
31134

>  <name>  (11) 
DQWUNIXDDNPLQU-HXUWFJFHSA-N

$$$$
DQWUNIXDDNPLQU-FQEVSTJZSA-N
     RDKit          3D

 29 31  0  0  0  0  0  0  0  0999 V2000
    6.0190   10.2927   27.0172 C   0  0  0  0  0  0  0  0  0  0  0  0
    7.0979   10.5747   26.0384 C   0  0  0  0  0  0  0  0  0  0  0  0
    7.5219    9.6061   25.2256 N   0  0  0  0  0  0  0  0  0  0  0  0
    8.4638   10.1891   24.4597 N   0  0  0  0  0  0  0  0  0  0  0  0
    9.1588    9.3950   23.4732 C   0  0  0  0  0  0  0  0  0  0  0  0
    8.6664   11.5087   24.7719 C   0  0  0  0  0  0  0  0  0  0  0  0
    9.6344   12.3835   24.0612 C   0  0  0  0  0  0  0  0  0  0  0  0
    7.8288   11.7751   25.8428 C   0  0  0  0  0  0  0  0  0  0  0  0
    7.7669   13.0161   26.6567 C   0  0  0  0  0  0  0  0  0  0  0  0
    6.9952   14.1939   26.1231 C   0  0  0  0  0  0  0  0  0  0  0  0
    7.1551   15.2898   26.6659 O   0  0  0  0  0  0  0  0  0  0  0  0
    6.1290   13.9893   25.0858 N   0  0  0  0  0  0  0  0  0  0  0  0
    5.2178   15.0380   24.6414 C   0  0  1  0  0  0  0  0  0  0  0  0
    5.0521   15.0540   23.1067 C   0  0  0  0  0  0  0  0  0  0  0  0
    6.2697   15.4487   22.4220 N   0  0  0  0  0  0  0  0  0  0  0  0
    7.2130   14.5590   21.9849 C   0  0  0  0  0  0  0  0  0  0  0  0
    7.0429   13.3403   22.0400 O   0  0  0  0  0  0  0  0  0  0  0  0
    8.4909   15.1860   21.4022 C   0  0  0  0  0  0  0  0  0  0  0  0
    8.4307   16.6562   21.3619 N   0  0  0  0  0  0  0  0  0  0  0  0
    3.8708   14.9701   25.3514 C   0  0  0  0  0  0  0  0  0  0  0  0
    3.0718   16.1215   25.4009 C   0  0  0  0  0  0  0  0  0  0  0  0
    1.8296   16.1140   26.0359 C   0  0  0  0  0  0  0  0  0  0  0  0
    1.3722   14.9616   26.6839 C   0  0  0  0  0  0  0  0  0  0  0  0
    0.1417   14.9466   27.3565 C   0  0  0  0  0  0  0  0  0  0  0  0
   -0.2775   13.8060   28.0391 C   0  0  0  0  0  0  0  0  0  0  0  0
    0.5278   12.6710   28.0619 C   0  0  0  0  0  0  0  0  0  0  0  0
    1.7458   12.6663   27.3840 C   0  0  0  0  0  0  0  0  0  0  0  0
    2.1774   13.8007   26.6793 C   0  0  0  0  0  0  0  0  0  0  0  0
    3.4001   13.8107   25.9857 C   0  0  0  0  0  0  0  0  0  0  0  0
  1  2  1  0
  2  3  2  0
  3  4  1  0
  4  5  1  0
  4  6  1  0
  6  7  1  0
  6  8  2  0
  8  9  1  0
  9 10  1  0
 10 11  2  0
 10 12  1  0
 12 13  1  0
 13 14  1  6
 14 15  1  0
 15 16  1  0
 16 17  2  0
 16 18  1  0
 18 19  1  0
 13 20  1  0
 20 21  2  0
 21 22  1  0
 22 23  2  0
 23 24  1  0
 24 25  2  0
 25 26  1  0
 26 27  2  0
 27 28  1  0
 28 29  2  0
  8  2  1  0
 29 20  1  0
 28 23  1  0
M  END
>  <distance_score>  (12) 
0.218284

>  <ref_pdb>  (12) 
A1346a

>  <ref_mols>  (12) 
A1346a

>  <alias>  (12) 
None

>  <original SMILES>  (12) 
Cc1nn(C)c(C)c1CC(=O)N[C@@H](CNC(=O)CN)c1ccc2ccccc2c1

>  <inchikey>  (12) 
DQWUNIXDDNPLQU-FQEVSTJZSA-N

>  <exports>  (12) 
['/opt/xchem-fragalysis-2/maxwin/2A_HIPPO/hippo/A71EV2A_10_recipes/Recipe_1LPUPHX_poses.sdf', '/opt/xchem-fragalysis-2/maxwin/2A_HIPPO/hippo/A71EV2A_10_recipes/Recipe_1LPVPY0_poses.sdf']

>  <original ID>  (12) 
DQWUNIXDDNPLQU-FQEVSTJZSA-N

>  <energy_score>  (12) 
-48.414338

>  <tags>  (12) 
['Syndirella scaffold']

>  <HIPPO ID>  (12) 
31135

>  <name>  (12) 
DQWUNIXDDNPLQU-FQEVSTJZSA-N

$$$$
UKQAXVOZPWHQOX-LJQANCHMSA-N
     RDKit          3D

 30 32  0  0  0  0  0  0  0  0999 V2000
    6.0379   10.3629   27.0427 C   0  0  0  0  0  0  0  0  0  0  0  0
    7.1264   10.6272   26.0690 C   0  0  0  0  0  0  0  0  0  0  0  0
    7.5656    9.6377   25.2893 N   0  0  0  0  0  0  0  0  0  0  0  0
    8.5029   10.2070   24.5078 N   0  0  0  0  0  0  0  0  0  0  0  0
    9.1866    9.3981   23.5248 C   0  0  0  0  0  0  0  0  0  0  0  0
    8.6870   11.5388   24.7778 C   0  0  0  0  0  0  0  0  0  0  0  0
    9.6428   12.4004   24.0339 C   0  0  0  0  0  0  0  0  0  0  0  0
    7.8271   11.8385   25.8223 C   0  0  0  0  0  0  0  0  0  0  0  0
    7.6704   13.1470   26.5241 C   0  0  0  0  0  0  0  0  0  0  0  0
    6.7746   14.1769   25.8535 C   0  0  0  0  0  0  0  0  0  0  0  0
    6.8144   15.3477   26.2273 O   0  0  0  0  0  0  0  0  0  0  0  0
    5.9190   13.7104   24.8971 N   0  0  0  0  0  0  0  0  0  0  0  0
    4.8416   14.4562   24.2632 C   0  0  2  0  0  0  0  0  0  0  0  0
    5.2518   15.6400   23.3777 C   0  0  0  0  0  0  0  0  0  0  0  0
    6.5687   15.6732   22.7916 N   0  0  0  0  0  0  0  0  0  0  0  0
    7.1753   14.6939   22.0574 C   0  0  0  0  0  0  0  0  0  0  0  0
    6.7466   13.5668   21.8551 O   0  0  0  0  0  0  0  0  0  0  0  0
    8.5376   15.1725   21.4774 C   0  0  0  0  0  0  0  0  0  0  0  0
    8.5505   16.4544   20.9811 N   0  0  0  0  0  0  0  0  0  0  0  0
    9.5221   14.4549   21.5020 O   0  0  0  0  0  0  0  0  0  0  0  0
    3.6667   14.6881   25.2147 C   0  0  0  0  0  0  0  0  0  0  0  0
    2.9965   15.9108   25.3410 C   0  0  0  0  0  0  0  0  0  0  0  0
    1.8359   16.0244   26.1118 C   0  0  0  0  0  0  0  0  0  0  0  0
    1.3311   14.9227   26.8106 C   0  0  0  0  0  0  0  0  0  0  0  0
    0.1535   15.0130   27.5667 C   0  0  0  0  0  0  0  0  0  0  0  0
   -0.3179   13.9097   28.2769 C   0  0  0  0  0  0  0  0  0  0  0  0
    0.3895   12.7114   28.2541 C   0  0  0  0  0  0  0  0  0  0  0  0
    1.5576   12.6059   27.5012 C   0  0  0  0  0  0  0  0  0  0  0  0
    2.0299   13.6993   26.7598 C   0  0  0  0  0  0  0  0  0  0  0  0
    3.1778   13.5995   25.9588 C   0  0  0  0  0  0  0  0  0  0  0  0
  1  2  1  0
  2  3  2  0
  3  4  1  0
  4  5  1  0
  4  6  1  0
  6  7  1  0
  6  8  2  0
  8  9  1  0
  9 10  1  0
 10 11  2  0
 10 12  1  0
 12 13  1  0
 13 14  1  1
 14 15  1  0
 15 16  1  0
 16 17  2  0
 16 18  1  0
 18 19  1  0
 18 20  2  0
 13 21  1  0
 21 22  2  0
 22 23  1  0
 23 24  2  0
 24 25  1  0
 25 26  2  0
 26 27  1  0
 27 28  2  0
 28 29  1  0
 29 30  2  0
  8  2  1  0
 30 21  1  0
 29 24  1  0
M  END
>  <distance_score>  (13) 
0.367314

>  <ref_pdb>  (13) 
A1346a

>  <ref_mols>  (13) 
A1346a

>  <alias>  (13) 
None

>  <original SMILES>  (13) 
Cc1nn(C)c(C)c1CC(=O)N[C@H](CNC(=O)C(N)=O)c1ccc2ccccc2c1

>  <inchikey>  (13) 
UKQAXVOZPWHQOX-LJQANCHMSA-N

>  <exports>  (13) 
['/opt/xchem-fragalysis-2/maxwin/2A_HIPPO/hippo/A71EV2A_10_recipes/Recipe_1LPVPY0_poses.sdf']

>  <original ID>  (13) 
UKQAXVOZPWHQOX-LJQANCHMSA-N

>  <energy_score>  (13) 
-65.381952

>  <tags>  (13) 
[]

>  <HIPPO ID>  (13) 
31136

>  <name>  (13) 
UKQAXVOZPWHQOX-LJQANCHMSA-N

$$$$
UKQAXVOZPWHQOX-IBGZPJMESA-N
     RDKit          3D

 30 32  0  0  0  0  0  0  0  0999 V2000
    6.0086   10.2875   27.0317 C   0  0  0  0  0  0  0  0  0  0  0  0
    7.0833   10.5712   26.0492 C   0  0  0  0  0  0  0  0  0  0  0  0
    7.5101    9.6014   25.2395 N   0  0  0  0  0  0  0  0  0  0  0  0
    8.4485   10.1868   24.4685 N   0  0  0  0  0  0  0  0  0  0  0  0
    9.1480    9.3952   23.4822 C   0  0  0  0  0  0  0  0  0  0  0  0
    8.6427   11.5091   24.7755 C   0  0  0  0  0  0  0  0  0  0  0  0
    9.6062   12.3843   24.0563 C   0  0  0  0  0  0  0  0  0  0  0  0
    7.8057   11.7754   25.8464 C   0  0  0  0  0  0  0  0  0  0  0  0
    7.7367   13.0196   26.6540 C   0  0  0  0  0  0  0  0  0  0  0  0
    6.9750   14.1947   26.0987 C   0  0  0  0  0  0  0  0  0  0  0  0
    7.1735   15.3080   26.5910 O   0  0  0  0  0  0  0  0  0  0  0  0
    6.0611   13.9693   25.1059 N   0  0  0  0  0  0  0  0  0  0  0  0
    5.1395   15.0133   24.6740 C   0  0  1  0  0  0  0  0  0  0  0  0
    4.9690   15.0412   23.1399 C   0  0  0  0  0  0  0  0  0  0  0  0
    6.1686   15.5154   22.4749 N   0  0  0  0  0  0  0  0  0  0  0  0
    7.1449   14.6519   22.0352 C   0  0  0  0  0  0  0  0  0  0  0  0
    7.0045   13.4365   21.9798 O   0  0  0  0  0  0  0  0  0  0  0  0
    8.4729   15.3360   21.6122 C   0  0  0  0  0  0  0  0  0  0  0  0
    8.3698   16.6181   21.1317 N   0  0  0  0  0  0  0  0  0  0  0  0
    9.5413   14.7586   21.7330 O   0  0  0  0  0  0  0  0  0  0  0  0
    3.7991   14.9433   25.3894 C   0  0  0  0  0  0  0  0  0  0  0  0
    3.0027   16.0972   25.4436 C   0  0  0  0  0  0  0  0  0  0  0  0
    1.7641   16.0903   26.0840 C   0  0  0  0  0  0  0  0  0  0  0  0
    1.3100   14.9373   26.7328 C   0  0  0  0  0  0  0  0  0  0  0  0
    0.0840   14.9237   27.4125 C   0  0  0  0  0  0  0  0  0  0  0  0
   -0.3317   13.7835   28.0978 C   0  0  0  0  0  0  0  0  0  0  0  0
    0.4718   12.6470   28.1146 C   0  0  0  0  0  0  0  0  0  0  0  0
    1.6850   12.6403   27.4284 C   0  0  0  0  0  0  0  0  0  0  0  0
    2.1136   13.7750   26.7230 C   0  0  0  0  0  0  0  0  0  0  0  0
    3.3326   13.7838   26.0246 C   0  0  0  0  0  0  0  0  0  0  0  0
  1  2  1  0
  2  3  2  0
  3  4  1  0
  4  5  1  0
  4  6  1  0
  6  7  1  0
  6  8  2  0
  8  9  1  0
  9 10  1  0
 10 11  2  0
 10 12  1  0
 12 13  1  0
 13 14  1  6
 14 15  1  0
 15 16  1  0
 16 17  2  0
 16 18  1  0
 18 19  1  0
 18 20  2  0
 13 21  1  0
 21 22  2  0
 22 23  1  0
 23 24  2  0
 24 25  1  0
 25 26  2  0
 26 27  1  0
 27 28  2  0
 28 29  1  0
 29 30  2  0
  8  2  1  0
 30 21  1  0
 29 24  1  0
M  END
>  <distance_score>  (14) 
0.22352

>  <ref_pdb>  (14) 
A1346a

>  <ref_mols>  (14) 
A1346a

>  <alias>  (14) 
None

>  <original SMILES>  (14) 
Cc1nn(C)c(C)c1CC(=O)N[C@@H](CNC(=O)C(N)=O)c1ccc2ccccc2c1

>  <inchikey>  (14) 
UKQAXVOZPWHQOX-IBGZPJMESA-N

>  <exports>  (14) 
['/opt/xchem-fragalysis-2/maxwin/2A_HIPPO/hippo/A71EV2A_10_recipes/Recipe_1LPVPY0_poses.sdf']

>  <original ID>  (14) 
UKQAXVOZPWHQOX-IBGZPJMESA-N

>  <energy_score>  (14) 
-78.597744

>  <tags>  (14) 
[]

>  <HIPPO ID>  (14) 
31137

>  <name>  (14) 
UKQAXVOZPWHQOX-IBGZPJMESA-N

$$$$
AYZKONOPXQJWHT-NHCUHLMSSA-N
     RDKit          3D

 31 33  0  0  0  0  0  0  0  0999 V2000
    6.0208   10.3617   27.0332 C   0  0  0  0  0  0  0  0  0  0  0  0
    7.1181   10.6240   26.0687 C   0  0  0  0  0  0  0  0  0  0  0  0
    7.5618    9.6347   25.2914 N   0  0  0  0  0  0  0  0  0  0  0  0
    8.5059   10.2018   24.5189 N   0  0  0  0  0  0  0  0  0  0  0  0
    9.1851    9.3957   23.5305 C   0  0  0  0  0  0  0  0  0  0  0  0
    8.6996   11.5302   24.7991 C   0  0  0  0  0  0  0  0  0  0  0  0
    9.6742   12.3853   24.0783 C   0  0  0  0  0  0  0  0  0  0  0  0
    7.8250   11.8334   25.8304 C   0  0  0  0  0  0  0  0  0  0  0  0
    7.6603   13.1423   26.5309 C   0  0  0  0  0  0  0  0  0  0  0  0
    6.7868   14.1803   25.8424 C   0  0  0  0  0  0  0  0  0  0  0  0
    6.8236   15.3464   26.2300 O   0  0  0  0  0  0  0  0  0  0  0  0
    5.9576   13.7207   24.8602 N   0  0  0  0  0  0  0  0  0  0  0  0
    4.8818   14.4617   24.2152 C   0  0  2  0  0  0  0  0  0  0  0  0
    5.2813   15.6012   23.2644 C   0  0  0  0  0  0  0  0  0  0  0  0
    6.6271   15.6631   22.7516 N   0  0  0  0  0  0  0  0  0  0  0  0
    7.3775   14.7313   22.0776 C   0  0  0  0  0  0  0  0  0  0  0  0
    7.0271   13.5783   21.8518 O   0  0  0  0  0  0  0  0  0  0  0  0
    8.7919   15.3290   21.8059 C   0  0  2  0  0  0  0  0  0  0  0  0
    8.6554   16.7895   21.5455 N   0  0  0  0  0  0  0  0  0  0  0  0
    9.6794   14.5861   20.8255 C   0  0  0  0  0  0  0  0  0  0  0  0
    9.8407   15.4327   19.2863 Cl  0  0  0  0  0  0  0  0  0  0  0  0
    3.7091   14.7084   25.1675 C   0  0  0  0  0  0  0  0  0  0  0  0
    3.0608   15.9401   25.3076 C   0  0  0  0  0  0  0  0  0  0  0  0
    1.9020   16.0651   26.0811 C   0  0  0  0  0  0  0  0  0  0  0  0
    1.3791   14.9665   26.7724 C   0  0  0  0  0  0  0  0  0  0  0  0
    0.2029   15.0687   27.5301 C   0  0  0  0  0  0  0  0  0  0  0  0
   -0.2848   13.9680   28.2338 C   0  0  0  0  0  0  0  0  0  0  0  0
    0.4055   12.7602   28.2038 C   0  0  0  0  0  0  0  0  0  0  0  0
    1.5716   12.6430   27.4493 C   0  0  0  0  0  0  0  0  0  0  0  0
    2.0592   13.7335   26.7127 C   0  0  0  0  0  0  0  0  0  0  0  0
    3.2038   13.6228   25.9072 C   0  0  0  0  0  0  0  0  0  0  0  0
  1  2  1  0
  2  3  2  0
  3  4  1  0
  4  5  1  0
  4  6  1  0
  6  7  1  0
  6  8  2  0
  8  9  1  0
  9 10  1  0
 10 11  2  0
 10 12  1  0
 12 13  1  0
 13 14  1  1
 14 15  1  0
 15 16  1  0
 16 17  2  0
 16 18  1  0
 18 19  1  6
 18 20  1  0
 20 21  1  0
 13 22  1  0
 22 23  2  0
 23 24  1  0
 24 25  2  0
 25 26  1  0
 26 27  2  0
 27 28  1  0
 28 29  2  0
 29 30  1  0
 30 31  2  0
  8  2  1  0
 31 22  1  0
 30 25  1  0
M  END
>  <distance_score>  (15) 
0.359916

>  <ref_pdb>  (15) 
A1346a

>  <ref_mols>  (15) 
A1346a

>  <alias>  (15) 
None

>  <original SMILES>  (15) 
Cc1nn(C)c(C)c1CC(=O)N[C@H](CNC(=O)[C@H](N)CCl)c1ccc2ccccc2c1

>  <inchikey>  (15) 
AYZKONOPXQJWHT-NHCUHLMSSA-N

>  <exports>  (15) 
['/opt/xchem-fragalysis-2/maxwin/2A_HIPPO/hippo/A71EV2A_10_recipes/Recipe_1LPVPY0_poses.sdf']

>  <original ID>  (15) 
AYZKONOPXQJWHT-NHCUHLMSSA-N

>  <energy_score>  (15) 
-29.036949

>  <tags>  (15) 
[]

>  <HIPPO ID>  (15) 
31162

>  <name>  (15) 
AYZKONOPXQJWHT-NHCUHLMSSA-N

$$$$
AYZKONOPXQJWHT-RTWAWAEBSA-N
     RDKit          3D

 31 33  0  0  0  0  0  0  0  0999 V2000
    5.9596   10.2529   27.0940 C   0  0  0  0  0  0  0  0  0  0  0  0
    7.0326   10.5260   26.1073 C   0  0  0  0  0  0  0  0  0  0  0  0
    7.4399    9.5549   25.2879 N   0  0  0  0  0  0  0  0  0  0  0  0
    8.3905   10.1271   24.5222 N   0  0  0  0  0  0  0  0  0  0  0  0
    9.0829    9.3362   23.5286 C   0  0  0  0  0  0  0  0  0  0  0  0
    8.5936   11.4462   24.8321 C   0  0  0  0  0  0  0  0  0  0  0  0
    9.5497   12.3128   24.1052 C   0  0  0  0  0  0  0  0  0  0  0  0
    7.7675   11.7219   25.9067 C   0  0  0  0  0  0  0  0  0  0  0  0
    7.7182   12.9726   26.7078 C   0  0  0  0  0  0  0  0  0  0  0  0
    6.9977   14.1652   26.1366 C   0  0  0  0  0  0  0  0  0  0  0  0
    7.1552   15.2620   26.6778 O   0  0  0  0  0  0  0  0  0  0  0  0
    6.1809   13.9730   25.0567 N   0  0  0  0  0  0  0  0  0  0  0  0
    5.2830   15.0246   24.5972 C   0  0  1  0  0  0  0  0  0  0  0  0
    5.1953   15.0677   23.0544 C   0  0  0  0  0  0  0  0  0  0  0  0
    6.4174   15.6006   22.4588 N   0  0  0  0  0  0  0  0  0  0  0  0
    7.4009   14.8206   21.8904 C   0  0  0  0  0  0  0  0  0  0  0  0
    7.2501   13.6056   21.7699 O   0  0  0  0  0  0  0  0  0  0  0  0
    8.6970   15.5954   21.5036 C   0  0  2  0  0  0  0  0  0  0  0  0
    8.4044   16.8844   20.8405 N   0  0  0  0  0  0  0  0  0  0  0  0
    9.7157   14.7503   20.7366 C   0  0  0  0  0  0  0  0  0  0  0  0
   11.0437   14.2332   21.8167 Cl  0  0  0  0  0  0  0  0  0  0  0  0
    3.9172   14.9503   25.2721 C   0  0  0  0  0  0  0  0  0  0  0  0
    3.1179   16.1018   25.3104 C   0  0  0  0  0  0  0  0  0  0  0  0
    1.8734   16.1024   25.9425 C   0  0  0  0  0  0  0  0  0  0  0  0
    1.4136   14.9583   26.6028 C   0  0  0  0  0  0  0  0  0  0  0  0
    0.1839   14.9534   27.2776 C   0  0  0  0  0  0  0  0  0  0  0  0
   -0.2354   13.8225   27.9759 C   0  0  0  0  0  0  0  0  0  0  0  0
    0.5694   12.6877   28.0128 C   0  0  0  0  0  0  0  0  0  0  0  0
    1.7867   12.6736   27.3334 C   0  0  0  0  0  0  0  0  0  0  0  0
    2.2181   13.7973   26.6112 C   0  0  0  0  0  0  0  0  0  0  0  0
    3.4419   13.7984   25.9172 C   0  0  0  0  0  0  0  0  0  0  0  0
  1  2  1  0
  2  3  2  0
  3  4  1  0
  4  5  1  0
  4  6  1  0
  6  7  1  0
  6  8  2  0
  8  9  1  0
  9 10  1  0
 10 11  2  0
 10 12  1  0
 12 13  1  0
 13 14  1  6
 14 15  1  0
 15 16  1  0
 16 17  2  0
 16 18  1  0
 18 19  1  6
 18 20  1  0
 20 21  1  0
 13 22  1  0
 22 23  2  0
 23 24  1  0
 24 25  2  0
 25 26  1  0
 26 27  2  0
 27 28  1  0
 28 29  2  0
 29 30  1  0
 30 31  2  0
  8  2  1  0
 31 22  1  0
 30 25  1  0
M  END
>  <distance_score>  (16) 
0.216689

>  <ref_pdb>  (16) 
A1346a

>  <ref_mols>  (16) 
A1346a

>  <alias>  (16) 
None

>  <original SMILES>  (16) 
Cc1nn(C)c(C)c1CC(=O)N[C@@H](CNC(=O)[C@H](N)CCl)c1ccc2ccccc2c1

>  <inchikey>  (16) 
AYZKONOPXQJWHT-RTWAWAEBSA-N

>  <exports>  (16) 
['/opt/xchem-fragalysis-2/maxwin/2A_HIPPO/hippo/A71EV2A_10_recipes/Recipe_1LPVPY0_poses.sdf']

>  <original ID>  (16) 
AYZKONOPXQJWHT-RTWAWAEBSA-N

>  <energy_score>  (16) 
-50.172231

>  <tags>  (16) 
[]

>  <HIPPO ID>  (16) 
31163

>  <name>  (16) 
AYZKONOPXQJWHT-RTWAWAEBSA-N

$$$$
AYZKONOPXQJWHT-LEWJYISDSA-N
     RDKit          3D

 31 33  0  0  0  0  0  0  0  0999 V2000
    5.8503   10.1951   27.1333 C   0  0  0  0  0  0  0  0  0  0  0  0
    6.9656   10.4672   26.1951 C   0  0  0  0  0  0  0  0  0  0  0  0
    7.4151    9.4927   25.3981 N   0  0  0  0  0  0  0  0  0  0  0  0
    8.3820   10.0727   24.6614 N   0  0  0  0  0  0  0  0  0  0  0  0
    9.0643    9.3235   23.6282 C   0  0  0  0  0  0  0  0  0  0  0  0
    8.5821   11.3823   25.0010 C   0  0  0  0  0  0  0  0  0  0  0  0
    9.5683   12.2370   24.3188 C   0  0  0  0  0  0  0  0  0  0  0  0
    7.6786   11.6789   26.0023 C   0  0  0  0  0  0  0  0  0  0  0  0
    7.4951   12.9911   26.6935 C   0  0  0  0  0  0  0  0  0  0  0  0
    6.7932   14.0791   25.8941 C   0  0  0  0  0  0  0  0  0  0  0  0
    6.8933   15.2537   26.2439 O   0  0  0  0  0  0  0  0  0  0  0  0
    6.0189   13.6531   24.8523 N   0  0  0  0  0  0  0  0  0  0  0  0
    5.0007   14.4349   24.1708 C   0  0  2  0  0  0  0  0  0  0  0  0
    5.4933   15.6443   23.3669 C   0  0  0  0  0  0  0  0  0  0  0  0
    6.7861   15.6493   22.7144 N   0  0  0  0  0  0  0  0  0  0  0  0
    7.3981   14.6747   21.9747 C   0  0  0  0  0  0  0  0  0  0  0  0
    6.9603   13.5337   21.8503 O   0  0  0  0  0  0  0  0  0  0  0  0
    8.7417   15.1732   21.3463 C   0  0  1  0  0  0  0  0  0  0  0  0
    8.5915   16.6118   20.9661 N   0  0  0  0  0  0  0  0  0  0  0  0
    9.8645   15.1191   22.3854 C   0  0  0  0  0  0  0  0  0  0  0  0
   11.1608   13.9739   22.0645 Cl  0  0  0  0  0  0  0  0  0  0  0  0
    3.7919   14.6791   25.0873 C   0  0  0  0  0  0  0  0  0  0  0  0
    3.1440   15.9144   25.2013 C   0  0  0  0  0  0  0  0  0  0  0  0
    1.9777   16.0577   25.9615 C   0  0  0  0  0  0  0  0  0  0  0  0
    1.4435   14.9736   26.6671 C   0  0  0  0  0  0  0  0  0  0  0  0
    0.2643   15.0954   27.4184 C   0  0  0  0  0  0  0  0  0  0  0  0
   -0.2334   14.0101   28.1387 C   0  0  0  0  0  0  0  0  0  0  0  0
    0.4500   12.7984   28.1323 C   0  0  0  0  0  0  0  0  0  0  0  0
    1.6187   12.6621   27.3846 C   0  0  0  0  0  0  0  0  0  0  0  0
    2.1169   13.7361   26.6300 C   0  0  0  0  0  0  0  0  0  0  0  0
    3.2677   13.6064   25.8329 C   0  0  0  0  0  0  0  0  0  0  0  0
  1  2  1  0
  2  3  2  0
  3  4  1  0
  4  5  1  0
  4  6  1  0
  6  7  1  0
  6  8  2  0
  8  9  1  0
  9 10  1  0
 10 11  2  0
 10 12  1  0
 12 13  1  0
 13 14  1  1
 14 15  1  0
 15 16  1  0
 16 17  2  0
 16 18  1  0
 18 19  1  1
 18 20  1  0
 20 21  1  0
 13 22  1  0
 22 23  2  0
 23 24  1  0
 24 25  2  0
 25 26  1  0
 26 27  2  0
 27 28  1  0
 28 29  2  0
 29 30  1  0
 30 31  2  0
  8  2  1  0
 31 22  1  0
 30 25  1  0
M  END
>  <distance_score>  (17) 
0.35333

>  <ref_pdb>  (17) 
A1346a

>  <ref_mols>  (17) 
A1346a

>  <alias>  (17) 
None

>  <original SMILES>  (17) 
Cc1nn(C)c(C)c1CC(=O)N[C@H](CNC(=O)[C@@H](N)CCl)c1ccc2ccccc2c1

>  <inchikey>  (17) 
AYZKONOPXQJWHT-LEWJYISDSA-N

>  <exports>  (17) 
['/opt/xchem-fragalysis-2/maxwin/2A_HIPPO/hippo/A71EV2A_10_recipes/Recipe_1LPVPY0_poses.sdf']

>  <original ID>  (17) 
AYZKONOPXQJWHT-LEWJYISDSA-N

>  <energy_score>  (17) 
-43.582548

>  <tags>  (17) 
[]

>  <HIPPO ID>  (17) 
31164

>  <name>  (17) 
AYZKONOPXQJWHT-LEWJYISDSA-N

$$$$
AYZKONOPXQJWHT-SFTDATJTSA-N
     RDKit          3D

 31 33  0  0  0  0  0  0  0  0999 V2000
    5.7635   10.0481   27.0780 C   0  0  0  0  0  0  0  0  0  0  0  0
    6.8814   10.3851   26.1645 C   0  0  0  0  0  0  0  0  0  0  0  0
    7.3663    9.4570   25.3381 N   0  0  0  0  0  0  0  0  0  0  0  0
    8.3325   10.0868   24.6442 N   0  0  0  0  0  0  0  0  0  0  0  0
    9.0599    9.3819   23.6100 C   0  0  0  0  0  0  0  0  0  0  0  0
    8.5040   11.3859   25.0440 C   0  0  0  0  0  0  0  0  0  0  0  0
    9.4988   12.2796   24.4191 C   0  0  0  0  0  0  0  0  0  0  0  0
    7.5786   11.6138   26.0457 C   0  0  0  0  0  0  0  0  0  0  0  0
    7.3771   12.8417   26.8597 C   0  0  0  0  0  0  0  0  0  0  0  0
    6.9633   14.0972   26.1350 C   0  0  0  0  0  0  0  0  0  0  0  0
    7.2969   15.1941   26.5860 O   0  0  0  0  0  0  0  0  0  0  0  0
    6.1418   13.9446   25.0503 N   0  0  0  0  0  0  0  0  0  0  0  0
    5.2917   15.0375   24.5975 C   0  0  1  0  0  0  0  0  0  0  0  0
    5.1921   15.0878   23.0581 C   0  0  0  0  0  0  0  0  0  0  0  0
    6.4386   15.5084   22.4329 N   0  0  0  0  0  0  0  0  0  0  0  0
    7.3820   14.6397   21.9416 C   0  0  0  0  0  0  0  0  0  0  0  0
    7.2035   13.4222   21.9649 O   0  0  0  0  0  0  0  0  0  0  0  0
    8.6668   15.3063   21.3672 C   0  0  1  0  0  0  0  0  0  0  0  0
    8.4214   16.7609   21.1434 N   0  0  0  0  0  0  0  0  0  0  0  0
    9.8197   15.1821   22.3659 C   0  0  0  0  0  0  0  0  0  0  0  0
   11.0591   13.9906   21.9951 Cl  0  0  0  0  0  0  0  0  0  0  0  0
    3.9202   14.9893   25.2721 C   0  0  0  0  0  0  0  0  0  0  0  0
    3.1392   16.1522   25.3118 C   0  0  0  0  0  0  0  0  0  0  0  0
    1.8914   16.1697   25.9386 C   0  0  0  0  0  0  0  0  0  0  0  0
    1.4077   15.0302   26.5905 C   0  0  0  0  0  0  0  0  0  0  0  0
    0.1740   15.0407   27.2584 C   0  0  0  0  0  0  0  0  0  0  0  0
   -0.2685   13.9121   27.9463 C   0  0  0  0  0  0  0  0  0  0  0  0
    0.5171   12.7640   27.9796 C   0  0  0  0  0  0  0  0  0  0  0  0
    1.7372   12.7342   27.3061 C   0  0  0  0  0  0  0  0  0  0  0  0
    2.1916   13.8562   26.5956 C   0  0  0  0  0  0  0  0  0  0  0  0
    3.4190   13.8417   25.9086 C   0  0  0  0  0  0  0  0  0  0  0  0
  1  2  1  0
  2  3  2  0
  3  4  1  0
  4  5  1  0
  4  6  1  0
  6  7  1  0
  6  8  2  0
  8  9  1  0
  9 10  1  0
 10 11  2  0
 10 12  1  0
 12 13  1  0
 13 14  1  6
 14 15  1  0
 15 16  1  0
 16 17  2  0
 16 18  1  0
 18 19  1  1
 18 20  1  0
 20 21  1  0
 13 22  1  0
 22 23  2  0
 23 24  1  0
 24 25  2  0
 25 26  1  0
 26 27  2  0
 27 28  1  0
 28 29  2  0
 29 30  1  0
 30 31  2  0
  8  2  1  0
 31 22  1  0
 30 25  1  0
M  END
>  <distance_score>  (18) 
0.239485

>  <ref_pdb>  (18) 
A1346a

>  <ref_mols>  (18) 
A1346a

>  <alias>  (18) 
None

>  <original SMILES>  (18) 
Cc1nn(C)c(C)c1CC(=O)N[C@@H](CNC(=O)[C@@H](N)CCl)c1ccc2ccccc2c1

>  <inchikey>  (18) 
AYZKONOPXQJWHT-SFTDATJTSA-N

>  <exports>  (18) 
['/opt/xchem-fragalysis-2/maxwin/2A_HIPPO/hippo/A71EV2A_10_recipes/Recipe_1LPVPY0_poses.sdf']

>  <original ID>  (18) 
AYZKONOPXQJWHT-SFTDATJTSA-N

>  <energy_score>  (18) 
-51.96616

>  <tags>  (18) 
[]

>  <HIPPO ID>  (18) 
31165

>  <name>  (18) 
AYZKONOPXQJWHT-SFTDATJTSA-N

$$$$
ZMTBJGRDILAGJL-LEWJYISDSA-N
     RDKit          3D

 33 35  0  0  0  0  0  0  0  0999 V2000
    5.9219   10.3163   27.0350 C   0  0  0  0  0  0  0  0  0  0  0  0
    7.0451   10.5652   26.0981 C   0  0  0  0  0  0  0  0  0  0  0  0
    7.4941    9.5719   25.3281 N   0  0  0  0  0  0  0  0  0  0  0  0
    8.4718   10.1257   24.5890 N   0  0  0  0  0  0  0  0  0  0  0  0
    9.1446    9.3339   23.5839 C   0  0  0  0  0  0  0  0  0  0  0  0
    8.7034   11.4368   24.9124 C   0  0  0  0  0  0  0  0  0  0  0  0
    9.7578   12.2507   24.2712 C   0  0  0  0  0  0  0  0  0  0  0  0
    7.7763   11.7649   25.8875 C   0  0  0  0  0  0  0  0  0  0  0  0
    7.5977   13.0794   26.5747 C   0  0  0  0  0  0  0  0  0  0  0  0
    6.8355   14.1498   25.8060 C   0  0  0  0  0  0  0  0  0  0  0  0
    6.9691   15.3309   26.1222 O   0  0  0  0  0  0  0  0  0  0  0  0
    5.9890   13.7095   24.8303 N   0  0  0  0  0  0  0  0  0  0  0  0
    4.9428   14.4838   24.1693 C   0  0  2  0  0  0  0  0  0  0  0  0
    5.3962   15.6582   23.2768 C   0  0  0  0  0  0  0  0  0  0  0  0
    6.7233   15.6471   22.6845 N   0  0  0  0  0  0  0  0  0  0  0  0
    7.2729   14.5896   22.0166 C   0  0  0  0  0  0  0  0  0  0  0  0
    6.6461   13.5486   21.8001 O   0  0  0  0  0  0  0  0  0  0  0  0
    8.7987   14.6951   21.7848 C   0  0  1  0  0  0  0  0  0  0  0  0
    9.2112   13.9276   20.6161 N   0  0  0  0  0  0  0  0  0  0  0  0
    9.5512   16.0036   21.6720 C   0  0  0  0  0  0  0  0  0  0  0  0
   10.9898   15.7099   21.8747 N   0  0  0  0  0  0  0  0  0  0  0  0
   11.4192   15.4185   22.9997 N   0  0  0  0  0  4  0  0  0  0  0  0
   11.8222   15.1410   24.0314 N   0  0  0  0  0  2  0  0  0  0  0  0
    3.7616   14.7354   25.1128 C   0  0  0  0  0  0  0  0  0  0  0  0
    3.1244   15.9724   25.2507 C   0  0  0  0  0  0  0  0  0  0  0  0
    1.9647   16.1092   26.0222 C   0  0  0  0  0  0  0  0  0  0  0  0
    1.4278   15.0164   26.7130 C   0  0  0  0  0  0  0  0  0  0  0  0
    0.2513   15.1308   27.4695 C   0  0  0  0  0  0  0  0  0  0  0  0
   -0.2509   14.0350   28.1708 C   0  0  0  0  0  0  0  0  0  0  0  0
    0.4252   12.8196   28.1401 C   0  0  0  0  0  0  0  0  0  0  0  0
    1.5910   12.6905   27.3870 C   0  0  0  0  0  0  0  0  0  0  0  0
    2.0932   13.7760   26.6521 C   0  0  0  0  0  0  0  0  0  0  0  0
    3.2379   13.6537   25.8468 C   0  0  0  0  0  0  0  0  0  0  0  0
  1  2  1  0
  2  3  2  0
  3  4  1  0
  4  5  1  0
  4  6  1  0
  6  7  1  0
  6  8  2  0
  8  9  1  0
  9 10  1  0
 10 11  2  0
 10 12  1  0
 12 13  1  0
 13 14  1  1
 14 15  1  0
 15 16  1  0
 16 17  2  0
 16 18  1  0
 18 19  1  6
 18 20  1  0
 20 21  1  0
 21 22  2  0
 22 23  2  0
 13 24  1  0
 24 25  2  0
 25 26  1  0
 26 27  2  0
 27 28  1  0
 28 29  2  0
 29 30  1  0
 30 31  2  0
 31 32  1  0
 32 33  2  0
  8  2  1  0
 33 24  1  0
 32 27  1  0
M  CHG  2  22   1  23  -1
M  END
>  <distance_score>  (19) 
0.370348

>  <ref_pdb>  (19) 
A1346a

>  <ref_mols>  (19) 
A1346a

>  <alias>  (19) 
None

>  <original SMILES>  (19) 
Cc1nn(C)c(C)c1CC(=O)N[C@H](CNC(=O)[C@@H](N)CN=[N+]=[N-])c1ccc2ccccc2c1

>  <inchikey>  (19) 
ZMTBJGRDILAGJL-LEWJYISDSA-N

>  <exports>  (19) 
['/opt/xchem-fragalysis-2/maxwin/2A_HIPPO/hippo/A71EV2A_10_recipes/Recipe_1LPVPY0_poses.sdf']

>  <original ID>  (19) 
ZMTBJGRDILAGJL-LEWJYISDSA-N

>  <energy_score>  (19) 
-23.107518

>  <tags>  (19) 
[]

>  <HIPPO ID>  (19) 
31618

>  <name>  (19) 
ZMTBJGRDILAGJL-LEWJYISDSA-N

$$$$
ZMTBJGRDILAGJL-SFTDATJTSA-N
     RDKit          3D

 33 35  0  0  0  0  0  0  0  0999 V2000
    5.6680    9.9645   27.1108 C   0  0  0  0  0  0  0  0  0  0  0  0
    6.7835   10.3176   26.2013 C   0  0  0  0  0  0  0  0  0  0  0  0
    7.2849    9.3984   25.3732 N   0  0  0  0  0  0  0  0  0  0  0  0
    8.2502   10.0386   24.6935 N   0  0  0  0  0  0  0  0  0  0  0  0
    8.9966    9.3510   23.6609 C   0  0  0  0  0  0  0  0  0  0  0  0
    8.4031   11.3346   25.1037 C   0  0  0  0  0  0  0  0  0  0  0  0
    9.4027   12.2263   24.5039 C   0  0  0  0  0  0  0  0  0  0  0  0
    7.4612   11.5568   26.0880 C   0  0  0  0  0  0  0  0  0  0  0  0
    7.2277   12.7894   26.8873 C   0  0  0  0  0  0  0  0  0  0  0  0
    6.9194   14.0506   26.1128 C   0  0  0  0  0  0  0  0  0  0  0  0
    7.3529   15.1357   26.5032 O   0  0  0  0  0  0  0  0  0  0  0  0
    6.0665   13.9145   25.0479 N   0  0  0  0  0  0  0  0  0  0  0  0
    5.2259   15.0212   24.6062 C   0  0  1  0  0  0  0  0  0  0  0  0
    5.0838   15.0653   23.0682 C   0  0  0  0  0  0  0  0  0  0  0  0
    6.3164   15.4700   22.4117 N   0  0  0  0  0  0  0  0  0  0  0  0
    7.2703   14.5798   21.9853 C   0  0  0  0  0  0  0  0  0  0  0  0
    7.1183   13.3625   22.0877 O   0  0  0  0  0  0  0  0  0  0  0  0
    8.5539   15.2210   21.3961 C   0  0  1  0  0  0  0  0  0  0  0  0
    8.3540   16.6672   21.1643 N   0  0  0  0  0  0  0  0  0  0  0  0
    9.7358   15.0207   22.3418 C   0  0  0  0  0  0  0  0  0  0  0  0
   10.5902   13.9291   21.8958 N   0  0  0  0  0  0  0  0  0  0  0  0
   11.4796   13.6230   22.7024 N   0  0  0  0  0  4  0  0  0  0  0  0
   12.2300   13.3715   23.5231 N   0  0  0  0  0  2  0  0  0  0  0  0
    3.8665   14.9913   25.3047 C   0  0  0  0  0  0  0  0  0  0  0  0
    3.1008   16.1638   25.3568 C   0  0  0  0  0  0  0  0  0  0  0  0
    1.8575   16.1909   25.9918 C   0  0  0  0  0  0  0  0  0  0  0  0
    1.3641   15.0521   26.6382 C   0  0  0  0  0  0  0  0  0  0  0  0
    0.1336   15.0709   27.3113 C   0  0  0  0  0  0  0  0  0  0  0  0
   -0.3188   13.9416   27.9918 C   0  0  0  0  0  0  0  0  0  0  0  0
    0.4534   12.7841   28.0121 C   0  0  0  0  0  0  0  0  0  0  0  0
    1.6693   12.7454   27.3321 C   0  0  0  0  0  0  0  0  0  0  0  0
    2.1336   13.8687   26.6305 C   0  0  0  0  0  0  0  0  0  0  0  0
    3.3562   13.8451   25.9371 C   0  0  0  0  0  0  0  0  0  0  0  0
  1  2  1  0
  2  3  2  0
  3  4  1  0
  4  5  1  0
  4  6  1  0
  6  7  1  0
  6  8  2  0
  8  9  1  0
  9 10  1  0
 10 11  2  0
 10 12  1  0
 12 13  1  0
 13 14  1  6
 14 15  1  0
 15 16  1  0
 16 17  2  0
 16 18  1  0
 18 19  1  1
 18 20  1  0
 20 21  1  0
 21 22  2  0
 22 23  2  0
 13 24  1  0
 24 25  2  0
 25 26  1  0
 26 27  2  0
 27 28  1  0
 28 29  2  0
 29 30  1  0
 30 31  2  0
 31 32  1  0
 32 33  2  0
  8  2  1  0
 33 24  1  0
 32 27  1  0
M  CHG  2  22   1  23  -1
M  END
>  <distance_score>  (20) 
0.486443

>  <ref_pdb>  (20) 
A1346a

>  <ref_mols>  (20) 
A1346a

>  <alias>  (20) 
None

>  <original SMILES>  (20) 
Cc1nn(C)c(C)c1CC(=O)N[C@@H](CNC(=O)[C@@H](N)CN=[N+]=[N-])c1ccc2ccccc2c1

>  <inchikey>  (20) 
ZMTBJGRDILAGJL-SFTDATJTSA-N

>  <exports>  (20) 
['/opt/xchem-fragalysis-2/maxwin/2A_HIPPO/hippo/A71EV2A_10_recipes/Recipe_1LPVPY0_poses.sdf']

>  <original ID>  (20) 
ZMTBJGRDILAGJL-SFTDATJTSA-N

>  <energy_score>  (20) 
-57.944351

>  <tags>  (20) 
[]

>  <HIPPO ID>  (20) 
31619

>  <name>  (20) 
ZMTBJGRDILAGJL-SFTDATJTSA-N

$$$$
ZMTBJGRDILAGJL-LEWJYISDSA-N
     RDKit          3D

 33 35  0  0  0  0  0  0  0  0999 V2000
    6.0833   10.3863   27.0541 C   0  0  0  0  0  0  0  0  0  0  0  0
    7.1600   10.6414   26.0649 C   0  0  0  0  0  0  0  0  0  0  0  0
    7.5837    9.6465   25.2833 N   0  0  0  0  0  0  0  0  0  0  0  0
    8.5048   10.2114   24.4778 N   0  0  0  0  0  0  0  0  0  0  0  0
    9.1726    9.3930   23.4905 C   0  0  0  0  0  0  0  0  0  0  0  0
    8.6899   11.5473   24.7325 C   0  0  0  0  0  0  0  0  0  0  0  0
    9.6132   12.4149   23.9549 C   0  0  0  0  0  0  0  0  0  0  0  0
    7.8643   11.8477   25.8048 C   0  0  0  0  0  0  0  0  0  0  0  0
    7.7356   13.1559   26.5152 C   0  0  0  0  0  0  0  0  0  0  0  0
    6.7639   14.1658   25.9268 C   0  0  0  0  0  0  0  0  0  0  0  0
    6.7263   15.3041   26.3902 O   0  0  0  0  0  0  0  0  0  0  0  0
    5.9399   13.7097   24.9386 N   0  0  0  0  0  0  0  0  0  0  0  0
    4.8558   14.4507   24.3160 C   0  0  2  0  0  0  0  0  0  0  0  0
    5.2548   15.6645   23.4747 C   0  0  0  0  0  0  0  0  0  0  0  0
    6.5920   15.8002   22.9603 N   0  0  0  0  0  0  0  0  0  0  0  0
    7.2105   14.9718   22.0628 C   0  0  0  0  0  0  0  0  0  0  0  0
    6.9075   13.7929   21.8863 O   0  0  0  0  0  0  0  0  0  0  0  0
    8.1925   15.7767   21.1845 C   0  0  1  0  0  0  0  0  0  0  0  0
    8.9541   16.8193   21.8524 N   0  0  0  0  0  0  0  0  0  0  0  0
    9.0346   14.9340   20.2661 C   0  0  0  0  0  0  0  0  0  0  0  0
   10.4528   15.2815   20.3338 N   0  0  0  0  0  0  0  0  0  0  0  0
   11.0371   15.1229   19.2525 N   0  0  0  0  0  4  0  0  0  0  0  0
   11.5799   14.9431   18.2768 N   0  0  0  0  0  2  0  0  0  0  0  0
    3.6612   14.6483   25.2550 C   0  0  0  0  0  0  0  0  0  0  0  0
    2.9424   15.8478   25.3564 C   0  0  0  0  0  0  0  0  0  0  0  0
    1.7739   15.9348   26.1172 C   0  0  0  0  0  0  0  0  0  0  0  0
    1.3046   14.8282   26.8294 C   0  0  0  0  0  0  0  0  0  0  0  0
    0.1216   14.8932   27.5787 C   0  0  0  0  0  0  0  0  0  0  0  0
   -0.3168   13.7866   28.3037 C   0  0  0  0  0  0  0  0  0  0  0  0
    0.4282   12.6108   28.3006 C   0  0  0  0  0  0  0  0  0  0  0  0
    1.6030   12.5312   27.5545 C   0  0  0  0  0  0  0  0  0  0  0  0
    2.0447   13.6278   26.7995 C   0  0  0  0  0  0  0  0  0  0  0  0
    3.2021   13.5541   26.0079 C   0  0  0  0  0  0  0  0  0  0  0  0
  1  2  1  0
  2  3  2  0
  3  4  1  0
  4  5  1  0
  4  6  1  0
  6  7  1  0
  6  8  2  0
  8  9  1  0
  9 10  1  0
 10 11  2  0
 10 12  1  0
 12 13  1  0
 13 14  1  1
 14 15  1  0
 15 16  1  0
 16 17  2  0
 16 18  1  0
 18 19  1  1
 18 20  1  0
 20 21  1  0
 21 22  2  0
 22 23  2  0
 13 24  1  0
 24 25  2  0
 25 26  1  0
 26 27  2  0
 27 28  1  0
 28 29  2  0
 29 30  1  0
 30 31  2  0
 31 32  1  0
 32 33  2  0
  8  2  1  0
 33 24  1  0
 32 27  1  0
M  CHG  2  22   1  23  -1
M  END
>  <distance_score>  (21) 
0.449595

>  <ref_pdb>  (21) 
A1346a

>  <ref_mols>  (21) 
A1346a

>  <alias>  (21) 
None

>  <original SMILES>  (21) 
Cc1nn(C)c(C)c1CC(=O)N[C@H](CNC(=O)[C@@H](N)CN=[N+]=[N-])c1ccc2ccccc2c1

>  <inchikey>  (21) 
ZMTBJGRDILAGJL-LEWJYISDSA-N

>  <exports>  (21) 
['/opt/xchem-fragalysis-2/maxwin/2A_HIPPO/hippo/A71EV2A_10_recipes/Recipe_1LPVPY0_poses.sdf']

>  <original ID>  (21) 
ZMTBJGRDILAGJL-LEWJYISDSA-N

>  <energy_score>  (21) 
-37.840454

>  <tags>  (21) 
[]

>  <HIPPO ID>  (21) 
31620

>  <name>  (21) 
ZMTBJGRDILAGJL-LEWJYISDSA-N

$$$$
ZMTBJGRDILAGJL-RTWAWAEBSA-N
     RDKit          3D

 33 35  0  0  0  0  0  0  0  0999 V2000
    5.8373   10.1762   27.0644 C   0  0  0  0  0  0  0  0  0  0  0  0
    6.9506   10.4654   26.1285 C   0  0  0  0  0  0  0  0  0  0  0  0
    7.4007    9.5047   25.3184 N   0  0  0  0  0  0  0  0  0  0  0  0
    8.3769   10.0917   24.6037 N   0  0  0  0  0  0  0  0  0  0  0  0
    9.0751    9.3416   23.5837 C   0  0  0  0  0  0  0  0  0  0  0  0
    8.6065   11.3866   24.9840 C   0  0  0  0  0  0  0  0  0  0  0  0
    9.6552   12.2187   24.3605 C   0  0  0  0  0  0  0  0  0  0  0  0
    7.6885   11.6689   25.9800 C   0  0  0  0  0  0  0  0  0  0  0  0
    7.5595   12.9160   26.7801 C   0  0  0  0  0  0  0  0  0  0  0  0
    6.8814   14.1045   26.1434 C   0  0  0  0  0  0  0  0  0  0  0  0
    7.2166   15.2397   26.4883 O   0  0  0  0  0  0  0  0  0  0  0  0
    5.8516   13.8577   25.2795 N   0  0  0  0  0  0  0  0  0  0  0  0
    4.9498   14.9120   24.8275 C   0  0  1  0  0  0  0  0  0  0  0  0
    4.6561   14.8317   23.3190 C   0  0  0  0  0  0  0  0  0  0  0  0
    5.8048   15.1897   22.5355 N   0  0  0  0  0  0  0  0  0  0  0  0
    6.8667   14.3221   22.3715 C   0  0  0  0  0  0  0  0  0  0  0  0
    6.8331   13.1242   22.6257 O   0  0  0  0  0  0  0  0  0  0  0  0
    8.0270   15.0057   21.7034 C   0  0  2  0  0  0  0  0  0  0  0  0
    8.2242   14.4334   20.3911 N   0  0  0  0  0  0  0  0  0  0  0  0
    9.3717   14.9127   22.3956 C   0  0  0  0  0  0  0  0  0  0  0  0
   10.2202   16.0451   22.0015 N   0  0  0  0  0  0  0  0  0  0  0  0
    9.7452   16.7635   21.1003 N   0  0  0  0  0  4  0  0  0  0  0  0
    9.2662   17.3347   20.2361 N   0  0  0  0  0  2  0  0  0  0  0  0
    3.6394   14.9067   25.5891 C   0  0  0  0  0  0  0  0  0  0  0  0
    2.8813   16.0856   25.6439 C   0  0  0  0  0  0  0  0  0  0  0  0
    1.6424   16.1066   26.2797 C   0  0  0  0  0  0  0  0  0  0  0  0
    1.1539   14.9578   26.9132 C   0  0  0  0  0  0  0  0  0  0  0  0
   -0.0764   14.9665   27.5825 C   0  0  0  0  0  0  0  0  0  0  0  0
   -0.5261   13.8274   28.2485 C   0  0  0  0  0  0  0  0  0  0  0  0
    0.2462   12.6688   28.2545 C   0  0  0  0  0  0  0  0  0  0  0  0
    1.4614   12.6370   27.5751 C   0  0  0  0  0  0  0  0  0  0  0  0
    1.9235   13.7723   26.8960 C   0  0  0  0  0  0  0  0  0  0  0  0
    3.1432   13.7539   26.2104 C   0  0  0  0  0  0  0  0  0  0  0  0
  1  2  1  0
  2  3  2  0
  3  4  1  0
  4  5  1  0
  4  6  1  0
  6  7  1  0
  6  8  2  0
  8  9  1  0
  9 10  1  0
 10 11  2  0
 10 12  1  0
 12 13  1  0
 13 14  1  6
 14 15  1  0
 15 16  1  0
 16 17  2  0
 16 18  1  0
 18 19  1  6
 18 20  1  0
 20 21  1  0
 21 22  2  0
 22 23  2  0
 13 24  1  0
 24 25  2  0
 25 26  1  0
 26 27  2  0
 27 28  1  0
 28 29  2  0
 29 30  1  0
 30 31  2  0
 31 32  1  0
 32 33  2  0
  8  2  1  0
 33 24  1  0
 32 27  1  0
M  CHG  2  22   1  23  -1
M  END
>  <distance_score>  (22) 
0.583403

>  <ref_pdb>  (22) 
A1346a

>  <ref_mols>  (22) 
A1346a

>  <alias>  (22) 
None

>  <original SMILES>  (22) 
Cc1nn(C)c(C)c1CC(=O)N[C@@H](CNC(=O)[C@H](N)CN=[N+]=[N-])c1ccc2ccccc2c1

>  <inchikey>  (22) 
ZMTBJGRDILAGJL-RTWAWAEBSA-N

>  <exports>  (22) 
['/opt/xchem-fragalysis-2/maxwin/2A_HIPPO/hippo/A71EV2A_10_recipes/Recipe_1LPVPY0_poses.sdf']

>  <original ID>  (22) 
ZMTBJGRDILAGJL-RTWAWAEBSA-N

>  <energy_score>  (22) 
-33.398944

>  <tags>  (22) 
[]

>  <HIPPO ID>  (22) 
31621

>  <name>  (22) 
ZMTBJGRDILAGJL-RTWAWAEBSA-N

$$$$
HOWRLYKLFLMWBY-LSDHHAIUSA-N
     RDKit          3D

 22 24  0  0  0  0  0  0  0  0999 V2000
    9.1732   15.1313   21.2596 O   0  0  0  0  0  0  0  0  0  0  0  0
   10.1860   14.9217   21.9035 C   0  0  0  0  0  0  0  0  0  0  0  0
   11.2583   15.7813   21.9837 N   0  0  0  0  0  0  0  0  0  0  0  0
   12.1376   15.4104   23.0421 C   0  0  0  0  0  0  0  0  0  0  0  0
   11.9056   13.9300   23.2320 C   0  0  0  0  0  0  0  0  0  0  0  0
   10.4926   13.7075   22.7121 C   0  0  1  0  0  0  0  0  0  0  0  0
    9.5154   13.3872   23.8189 C   0  0  0  0  0  0  0  0  0  0  0  0
    9.0421   14.2579   24.5465 O   0  0  0  0  0  0  0  0  0  0  0  0
    9.2192   12.0370   24.0435 N   0  0  0  0  0  0  0  0  0  0  0  0
    9.7504   11.0194   23.1642 C   0  0  0  0  0  0  0  0  0  0  0  0
    9.6989    9.6169   23.6599 C   0  0  0  0  0  0  0  0  0  0  0  0
    8.3980    9.3083   24.3389 C   0  0  0  0  0  0  0  0  0  0  0  0
    7.8060   10.3741   25.2670 C   0  0  2  0  0  0  0  0  0  0  0  0
    6.4638    9.9823   25.7091 N   0  0  0  0  0  0  0  0  0  0  0  0
    5.7081   10.9281   26.5248 C   0  0  0  0  0  0  0  0  0  0  0  0
    6.1886   11.1205   27.9410 C   0  0  0  0  0  0  0  0  0  0  0  0
    6.0739   10.0868   28.8838 C   0  0  0  0  0  0  0  0  0  0  0  0
    6.4905   10.2805   30.2030 C   0  0  0  0  0  0  0  0  0  0  0  0
    7.0192   11.5094   30.5953 C   0  0  0  0  0  0  0  0  0  0  0  0
    7.1229   12.5487   29.6725 C   0  0  0  0  0  0  0  0  0  0  0  0
    6.7071   12.3574   28.3531 C   0  0  0  0  0  0  0  0  0  0  0  0
    7.9221   11.7660   24.6580 C   0  0  0  0  0  0  0  0  0  0  0  0
  1  2  2  0
  2  3  1  0
  3  4  1  0
  4  5  1  0
  5  6  1  0
  6  7  1  1
  7  8  2  0
  7  9  1  0
  9 10  1  0
 10 11  1  0
 11 12  1  0
 12 13  1  0
 13 14  1  6
 14 15  1  0
 15 16  1  0
 16 17  2  0
 17 18  1  0
 18 19  2  0
 19 20  1  0
 20 21  2  0
 13 22  1  0
  6  2  1  0
 22  9  1  0
 21 16  1  0
M  END
>  <distance_score>  (23) 
1.470333

>  <ref_pdb>  (23) 
A0310a

>  <ref_mols>  (23) 
A0528a,A0365a

>  <alias>  (23) 
None

>  <original SMILES>  (23) 
O=C1NCC[C@H]1C(=O)N1CCC[C@H](NCc2ccccc2)C1

>  <inchikey>  (23) 
HOWRLYKLFLMWBY-LSDHHAIUSA-N

>  <exports>  (23) 
['/opt/xchem-fragalysis-2/maxwin/2A_HIPPO/hippo/A71EV2A_10_recipes/Recipe_1LPUPHX_poses.sdf', '/opt/xchem-fragalysis-2/maxwin/2A_HIPPO/hippo/A71EV2A_10_recipes/Recipe_1LPVPY0_poses.sdf']

>  <original ID>  (23) 
HOWRLYKLFLMWBY-LSDHHAIUSA-N

>  <energy_score>  (23) 
-28.147638

>  <tags>  (23) 
['Syndirella scaffold']

>  <HIPPO ID>  (23) 
32879

>  <name>  (23) 
HOWRLYKLFLMWBY-LSDHHAIUSA-N

$$$$
HOWRLYKLFLMWBY-CABCVRRESA-N
     RDKit          3D

 22 24  0  0  0  0  0  0  0  0999 V2000
    8.9802   15.1430   21.7986 O   0  0  0  0  0  0  0  0  0  0  0  0
   10.1358   14.9362   22.1179 C   0  0  0  0  0  0  0  0  0  0  0  0
   11.1716   15.1874   21.2573 N   0  0  0  0  0  0  0  0  0  0  0  0
   12.3628   14.5563   21.7002 C   0  0  0  0  0  0  0  0  0  0  0  0
   11.9305   13.6663   22.8544 C   0  0  0  0  0  0  0  0  0  0  0  0
   10.7183   14.3928   23.4034 C   0  0  2  0  0  0  0  0  0  0  0  0
    9.8901   13.5742   24.3895 C   0  0  0  0  0  0  0  0  0  0  0  0
    9.7785   13.9758   25.5473 O   0  0  0  0  0  0  0  0  0  0  0  0
    9.2925   12.3841   23.9956 N   0  0  0  0  0  0  0  0  0  0  0  0
    8.3334   12.5855   22.9947 C   0  0  0  0  0  0  0  0  0  0  0  0
    7.1420   13.3500   23.5471 C   0  0  0  0  0  0  0  0  0  0  0  0
    6.6970   12.9438   24.9554 C   0  0  0  0  0  0  0  0  0  0  0  0
    7.4212   11.7659   25.6233 C   0  0  1  0  0  0  0  0  0  0  0  0
    6.5502   10.6009   25.8779 N   0  0  0  0  0  0  0  0  0  0  0  0
    5.4872   10.8346   26.8635 C   0  0  0  0  0  0  0  0  0  0  0  0
    5.9756   11.0409   28.2795 C   0  0  0  0  0  0  0  0  0  0  0  0
    6.1103    9.9517   29.1502 C   0  0  0  0  0  0  0  0  0  0  0  0
    6.6114   10.1350   30.4410 C   0  0  0  0  0  0  0  0  0  0  0  0
    6.9890   11.4058   30.8717 C   0  0  0  0  0  0  0  0  0  0  0  0
    6.8423   12.4996   30.0228 C   0  0  0  0  0  0  0  0  0  0  0  0
    6.3240   12.3203   28.7405 C   0  0  0  0  0  0  0  0  0  0  0  0
    8.7251   11.3694   24.8958 C   0  0  0  0  0  0  0  0  0  0  0  0
  1  2  2  0
  2  3  1  0
  3  4  1  0
  4  5  1  0
  5  6  1  0
  6  7  1  6
  7  8  2  0
  7  9  1  0
  9 10  1  0
 10 11  1  0
 11 12  1  0
 12 13  1  0
 13 14  1  6
 14 15  1  0
 15 16  1  0
 16 17  2  0
 17 18  1  0
 18 19  2  0
 19 20  1  0
 20 21  2  0
 13 22  1  0
  6  2  1  0
 22  9  1  0
 21 16  1  0
M  END
>  <distance_score>  (24) 
1.913803

>  <ref_pdb>  (24) 
A0310a

>  <ref_mols>  (24) 
A0528a,A0365a

>  <alias>  (24) 
None

>  <original SMILES>  (24) 
O=C1NCC[C@@H]1C(=O)N1CCC[C@@H](NCc2ccccc2)C1

>  <inchikey>  (24) 
HOWRLYKLFLMWBY-CABCVRRESA-N

>  <exports>  (24) 
['/opt/xchem-fragalysis-2/maxwin/2A_HIPPO/hippo/A71EV2A_10_recipes/Recipe_1LPUPHX_poses.sdf', '/opt/xchem-fragalysis-2/maxwin/2A_HIPPO/hippo/A71EV2A_10_recipes/Recipe_1LPVPY0_poses.sdf']

>  <original ID>  (24) 
HOWRLYKLFLMWBY-CABCVRRESA-N

>  <energy_score>  (24) 
-27.147451

>  <tags>  (24) 
['Syndirella scaffold']

>  <HIPPO ID>  (24) 
32880

>  <name>  (24) 
HOWRLYKLFLMWBY-CABCVRRESA-N

$$$$
MMFGTXMLRZLZQV-ZIAGYGMSSA-N
     RDKit          3D

 23 25  0  0  0  0  0  0  0  0999 V2000
    3.9996   11.4289   27.3515 O   0  0  0  0  0  0  0  0  0  0  0  0
    5.2081   11.4156   27.1310 C   0  0  0  0  0  0  0  0  0  0  0  0
    5.6429   11.5227   25.8539 N   0  0  0  0  0  0  0  0  0  0  0  0
    6.8971   11.3973   25.1415 C   0  0  2  0  0  0  0  0  0  0  0  0
    7.5838   10.0754   25.2991 C   0  0  0  0  0  0  0  0  0  0  0  0
    8.6458    9.8677   24.2292 C   0  0  0  0  0  0  0  0  0  0  0  0
    9.2149   11.1350   23.6284 C   0  0  0  0  0  0  0  0  0  0  0  0
    9.0891   12.3324   24.4475 N   0  0  0  0  0  0  0  0  0  0  0  0
    9.8157   13.4881   24.1942 C   0  0  0  0  0  0  0  0  0  0  0  0
    9.7530   14.4248   24.9913 O   0  0  0  0  0  0  0  0  0  0  0  0
   10.6399   13.5783   22.9300 C   0  0  2  0  0  0  0  0  0  0  0  0
   12.0719   14.0171   23.2089 C   0  0  0  0  0  0  0  0  0  0  0  0
   12.1149   15.4755   22.8133 C   0  0  0  0  0  0  0  0  0  0  0  0
   11.0778   15.6136   21.8418 N   0  0  0  0  0  0  0  0  0  0  0  0
   10.1159   14.6455   22.0100 C   0  0  0  0  0  0  0  0  0  0  0  0
    8.9973   14.7022   21.5260 O   0  0  0  0  0  0  0  0  0  0  0  0
    7.8592   12.5485   25.2209 C   0  0  0  0  0  0  0  0  0  0  0  0
    6.1102   11.3555   28.2778 C   0  0  0  0  0  0  0  0  0  0  0  0
    6.0865   10.2267   29.1026 C   0  0  0  0  0  0  0  0  0  0  0  0
    6.7686   10.2503   30.3204 C   0  0  0  0  0  0  0  0  0  0  0  0
    7.4534   11.4021   30.7149 C   0  0  0  0  0  0  0  0  0  0  0  0
    7.4527   12.5355   29.8988 C   0  0  0  0  0  0  0  0  0  0  0  0
    6.7723   12.5180   28.6810 C   0  0  0  0  0  0  0  0  0  0  0  0
  1  2  2  0
  2  3  1  0
  4  3  1  1
  4  5  1  0
  5  6  1  0
  6  7  1  0
  7  8  1  0
  8  9  1  0
  9 10  2  0
 11  9  1  1
 11 12  1  0
 12 13  1  0
 13 14  1  0
 14 15  1  0
 15 16  2  0
  8 17  1  0
  2 18  1  0
 18 19  2  0
 19 20  1  0
 20 21  2  0
 21 22  1  0
 22 23  2  0
 17  4  1  0
 23 18  1  0
 15 11  1  0
M  END
>  <distance_score>  (25) 
1.48263

>  <ref_pdb>  (25) 
A0310a

>  <ref_mols>  (25) 
A0528a,A0365a

>  <alias>  (25) 
None

>  <original SMILES>  (25) 
O=C(N[C@@H]1CCCN(C(=O)[C@@H]2CCNC2=O)C1)c1ccccc1

>  <inchikey>  (25) 
MMFGTXMLRZLZQV-ZIAGYGMSSA-N

>  <exports>  (25) 
['/opt/xchem-fragalysis-2/maxwin/2A_HIPPO/hippo/A71EV2A_10_recipes/Recipe_1LPUPHX_poses.sdf', '/opt/xchem-fragalysis-2/maxwin/2A_HIPPO/hippo/A71EV2A_10_recipes/Recipe_1LPVPY0_poses.sdf']

>  <original ID>  (25) 
MMFGTXMLRZLZQV-ZIAGYGMSSA-N

>  <energy_score>  (25) 
-8.811614

>  <tags>  (25) 
[]

>  <HIPPO ID>  (25) 
33561

>  <name>  (25) 
MMFGTXMLRZLZQV-ZIAGYGMSSA-N

$$$$
MMFGTXMLRZLZQV-UONOGXRCSA-N
     RDKit          3D

 23 25  0  0  0  0  0  0  0  0999 V2000
    5.0866   10.1163   26.5698 O   0  0  0  0  0  0  0  0  0  0  0  0
    5.5512   11.2150   26.8389 C   0  0  0  0  0  0  0  0  0  0  0  0
    5.8817   12.1291   25.8509 N   0  0  0  0  0  0  0  0  0  0  0  0
    7.0046   11.7645   24.9995 C   0  0  1  0  0  0  0  0  0  0  0  0
    7.2908   12.5836   23.7652 C   0  0  0  0  0  0  0  0  0  0  0  0
    8.4880   11.8546   23.0375 C   0  0  0  0  0  0  0  0  0  0  0  0
    9.5689   11.3126   23.9062 C   0  0  0  0  0  0  0  0  0  0  0  0
    9.5123   12.2376   24.9637 N   0  0  0  0  0  0  0  0  0  0  0  0
    9.9413   13.5634   24.7217 C   0  0  0  0  0  0  0  0  0  0  0  0
    9.5453   14.4727   25.4529 O   0  0  0  0  0  0  0  0  0  0  0  0
   10.8702   13.8464   23.5294 C   0  0  2  0  0  0  0  0  0  0  0  0
   12.0761   14.6822   23.9436 C   0  0  0  0  0  0  0  0  0  0  0  0
   12.3061   15.6534   22.8032 C   0  0  0  0  0  0  0  0  0  0  0  0
   11.1840   15.5482   21.9427 N   0  0  0  0  0  0  0  0  0  0  0  0
   10.2411   14.7005   22.4508 C   0  0  0  0  0  0  0  0  0  0  0  0
    9.0907   14.7100   22.0483 O   0  0  0  0  0  0  0  0  0  0  0  0
    8.2869   11.9645   25.7797 C   0  0  0  0  0  0  0  0  0  0  0  0
    5.9281   11.5118   28.2523 C   0  0  0  0  0  0  0  0  0  0  0  0
    5.9304   10.4316   29.1538 C   0  0  0  0  0  0  0  0  0  0  0  0
    6.4232   10.5849   30.4502 C   0  0  0  0  0  0  0  0  0  0  0  0
    6.9178   11.8203   30.8581 C   0  0  0  0  0  0  0  0  0  0  0  0
    6.9016   12.9032   29.9792 C   0  0  0  0  0  0  0  0  0  0  0  0
    6.4025   12.7551   28.6816 C   0  0  0  0  0  0  0  0  0  0  0  0
  1  2  2  0
  2  3  1  0
  4  3  1  1
  4  5  1  0
  5  6  1  0
  6  7  1  0
  7  8  1  0
  8  9  1  0
  9 10  2  0
 11  9  1  1
 11 12  1  0
 12 13  1  0
 13 14  1  0
 14 15  1  0
 15 16  2  0
  8 17  1  0
  2 18  1  0
 18 19  2  0
 19 20  1  0
 20 21  2  0
 21 22  1  0
 22 23  2  0
 17  4  1  0
 23 18  1  0
 15 11  1  0
M  END
>  <distance_score>  (26) 
1.536513

>  <ref_pdb>  (26) 
A0310a

>  <ref_mols>  (26) 
A0528a,A0365a

>  <alias>  (26) 
None

>  <original SMILES>  (26) 
O=C(N[C@H]1CCCN(C(=O)[C@@H]2CCNC2=O)C1)c1ccccc1

>  <inchikey>  (26) 
MMFGTXMLRZLZQV-UONOGXRCSA-N

>  <exports>  (26) 
['/opt/xchem-fragalysis-2/maxwin/2A_HIPPO/hippo/A71EV2A_10_recipes/Recipe_1LPUPHX_poses.sdf', '/opt/xchem-fragalysis-2/maxwin/2A_HIPPO/hippo/A71EV2A_10_recipes/Recipe_1LPVPY0_poses.sdf']

>  <original ID>  (26) 
MMFGTXMLRZLZQV-UONOGXRCSA-N

>  <energy_score>  (26) 
13.022069

>  <tags>  (26) 
[]

>  <HIPPO ID>  (26) 
33562

>  <name>  (26) 
MMFGTXMLRZLZQV-UONOGXRCSA-N

$$$$
MMFGTXMLRZLZQV-KGLIPLIRSA-N
     RDKit          3D

 23 25  0  0  0  0  0  0  0  0999 V2000
    4.2657   11.3780   26.9230 O   0  0  0  0  0  0  0  0  0  0  0  0
    5.4854   11.2753   26.9580 C   0  0  0  0  0  0  0  0  0  0  0  0
    6.2441   11.1986   25.8027 N   0  0  0  0  0  0  0  0  0  0  0  0
    7.5350   11.8529   25.6492 C   0  0  2  0  0  0  0  0  0  0  0  0
    7.3531   13.3653   25.6081 C   0  0  0  0  0  0  0  0  0  0  0  0
    8.6976   14.0788   25.7236 C   0  0  0  0  0  0  0  0  0  0  0  0
    9.8446   13.3865   24.9807 C   0  0  0  0  0  0  0  0  0  0  0  0
    9.3197   12.5459   23.9545 N   0  0  0  0  0  0  0  0  0  0  0  0
    8.9906   13.2685   22.8075 C   0  0  0  0  0  0  0  0  0  0  0  0
    7.8701   13.1305   22.3302 O   0  0  0  0  0  0  0  0  0  0  0  0
   10.0282   14.2843   22.3249 C   0  0  1  0  0  0  0  0  0  0  0  0
   11.4751   13.7856   22.2591 C   0  0  0  0  0  0  0  0  0  0  0  0
   12.0800   14.4831   21.0629 C   0  0  0  0  0  0  0  0  0  0  0  0
   10.9725   14.9514   20.3068 N   0  0  0  0  0  0  0  0  0  0  0  0
    9.7868   14.9059   20.9896 C   0  0  0  0  0  0  0  0  0  0  0  0
    8.7558   15.3961   20.5724 O   0  0  0  0  0  0  0  0  0  0  0  0
    8.4284   11.4363   24.4427 C   0  0  0  0  0  0  0  0  0  0  0  0
    6.1186   11.2563   28.2865 C   0  0  0  0  0  0  0  0  0  0  0  0
    6.1490   10.0573   29.0012 C   0  0  0  0  0  0  0  0  0  0  0  0
    6.6650   10.0450   30.2997 C   0  0  0  0  0  0  0  0  0  0  0  0
    7.1521   11.2201   30.8754 C   0  0  0  0  0  0  0  0  0  0  0  0
    7.0867   12.4214   30.1731 C   0  0  0  0  0  0  0  0  0  0  0  0
    6.5443   12.4447   28.8891 C   0  0  0  0  0  0  0  0  0  0  0  0
  1  2  2  0
  2  3  1  0
  4  3  1  6
  4  5  1  0
  5  6  1  0
  6  7  1  0
  7  8  1  0
  8  9  1  0
  9 10  2  0
 11  9  1  6
 11 12  1  0
 12 13  1  0
 13 14  1  0
 14 15  1  0
 15 16  2  0
  8 17  1  0
  2 18  1  0
 18 19  2  0
 19 20  1  0
 20 21  2  0
 21 22  1  0
 22 23  2  0
 17  4  1  0
 23 18  1  0
 15 11  1  0
M  END
>  <distance_score>  (27) 
2.231368

>  <ref_pdb>  (27) 
A0310a

>  <ref_mols>  (27) 
A0528a,A0365a

>  <alias>  (27) 
None

>  <original SMILES>  (27) 
O=C(N[C@@H]1CCCN(C(=O)[C@H]2CCNC2=O)C1)c1ccccc1

>  <inchikey>  (27) 
MMFGTXMLRZLZQV-KGLIPLIRSA-N

>  <exports>  (27) 
['/opt/xchem-fragalysis-2/maxwin/2A_HIPPO/hippo/A71EV2A_10_recipes/Recipe_1LPUPHX_poses.sdf', '/opt/xchem-fragalysis-2/maxwin/2A_HIPPO/hippo/A71EV2A_10_recipes/Recipe_1LPVPY0_poses.sdf']

>  <original ID>  (27) 
MMFGTXMLRZLZQV-KGLIPLIRSA-N

>  <energy_score>  (27) 
-5.227382

>  <tags>  (27) 
[]

>  <HIPPO ID>  (27) 
33563

>  <name>  (27) 
MMFGTXMLRZLZQV-KGLIPLIRSA-N

$$$$
MMFGTXMLRZLZQV-KBPBESRZSA-N
     RDKit          3D

 23 25  0  0  0  0  0  0  0  0999 V2000
    4.5474   11.2676   26.7150 O   0  0  0  0  0  0  0  0  0  0  0  0
    5.7304   10.9848   26.8566 C   0  0  0  0  0  0  0  0  0  0  0  0
    6.4420   10.2997   25.8970 N   0  0  0  0  0  0  0  0  0  0  0  0
    7.7875   10.6435   25.4107 C   0  0  1  0  0  0  0  0  0  0  0  0
    8.3754    9.5860   24.4779 C   0  0  0  0  0  0  0  0  0  0  0  0
    9.5830    9.9441   23.6366 C   0  0  0  0  0  0  0  0  0  0  0  0
    9.6375   11.3922   23.2206 C   0  0  0  0  0  0  0  0  0  0  0  0
    9.2048   12.3150   24.2358 N   0  0  0  0  0  0  0  0  0  0  0  0
    9.6517   13.6140   24.3587 C   0  0  0  0  0  0  0  0  0  0  0  0
    9.2337   14.2861   25.3133 O   0  0  0  0  0  0  0  0  0  0  0  0
   10.5927   14.3109   23.3935 C   0  0  1  0  0  0  0  0  0  0  0  0
   11.9866   13.8812   22.9774 C   0  0  0  0  0  0  0  0  0  0  0  0
   12.2781   14.8629   21.8426 C   0  0  0  0  0  0  0  0  0  0  0  0
   10.9979   15.1112   21.2604 N   0  0  0  0  0  0  0  0  0  0  0  0
    9.9736   14.6922   22.0766 C   0  0  0  0  0  0  0  0  0  0  0  0
    8.8010   14.6694   21.7549 O   0  0  0  0  0  0  0  0  0  0  0  0
    7.8668   12.0243   24.7778 C   0  0  0  0  0  0  0  0  0  0  0  0
    6.3336   11.2657   28.1581 C   0  0  0  0  0  0  0  0  0  0  0  0
    6.3039   10.2561   29.1285 C   0  0  0  0  0  0  0  0  0  0  0  0
    6.7968   10.5167   30.4061 C   0  0  0  0  0  0  0  0  0  0  0  0
    7.2973   11.7847   30.7095 C   0  0  0  0  0  0  0  0  0  0  0  0
    7.2908   12.7973   29.7450 C   0  0  0  0  0  0  0  0  0  0  0  0
    6.7960   12.5446   28.4653 C   0  0  0  0  0  0  0  0  0  0  0  0
  1  2  2  0
  2  3  1  0
  4  3  1  6
  4  5  1  0
  5  6  1  0
  6  7  1  0
  7  8  1  0
  8  9  1  0
  9 10  2  0
 11  9  1  6
 11 12  1  0
 12 13  1  0
 13 14  1  0
 14 15  1  0
 15 16  2  0
  8 17  1  0
  2 18  1  0
 18 19  2  0
 19 20  1  0
 20 21  2  0
 21 22  1  0
 22 23  2  0
 17  4  1  0
 23 18  1  0
 15 11  1  0
M  END
>  <distance_score>  (28) 
1.660324

>  <ref_pdb>  (28) 
A0310a

>  <ref_mols>  (28) 
A0528a,A0365a

>  <alias>  (28) 
None

>  <original SMILES>  (28) 
O=C(N[C@H]1CCCN(C(=O)[C@H]2CCNC2=O)C1)c1ccccc1

>  <inchikey>  (28) 
MMFGTXMLRZLZQV-KBPBESRZSA-N

>  <exports>  (28) 
['/opt/xchem-fragalysis-2/maxwin/2A_HIPPO/hippo/A71EV2A_10_recipes/Recipe_1LPUPHX_poses.sdf', '/opt/xchem-fragalysis-2/maxwin/2A_HIPPO/hippo/A71EV2A_10_recipes/Recipe_1LPVPY0_poses.sdf']

>  <original ID>  (28) 
MMFGTXMLRZLZQV-KBPBESRZSA-N

>  <energy_score>  (28) 
-17.83914

>  <tags>  (28) 
[]

>  <HIPPO ID>  (28) 
33564

>  <name>  (28) 
MMFGTXMLRZLZQV-KBPBESRZSA-N

$$$$
MYWCACHSFGNPKZ-LPHOPBHVSA-N
     RDKit          3D

 24 26  0  0  0  0  0  0  0  0999 V2000
    7.8465   14.5121   23.9241 C   0  0  0  0  0  0  0  0  0  0  0  0
    9.2655   14.5858   23.2602 C   0  0  0  0  0  0  0  0  0  0  0  0
    9.7432   13.5973   22.2102 C   0  0  2  0  0  0  0  0  0  0  0  0
    8.8439   12.3738   22.4886 C   0  0  0  0  0  0  0  0  0  0  0  0
    7.6225   12.5447   22.3717 O   0  0  0  0  0  0  0  0  0  0  0  0
    9.3127   11.1394   22.9414 N   0  0  0  0  0  0  0  0  0  0  0  0
   10.3920   11.3190   23.7708 C   0  0  0  0  0  0  0  0  0  0  0  0
    9.8064   12.0836   24.9358 C   0  0  0  0  0  0  0  0  0  0  0  0
    8.5279   11.4958   25.5702 C   0  0  0  0  0  0  0  0  0  0  0  0
    7.5406   10.8011   24.6757 C   0  0  2  0  0  0  0  0  0  0  0  0
    6.6690    9.9439   25.4821 N   0  0  0  0  0  0  0  0  0  0  0  0
    5.6769   10.6046   26.3286 C   0  0  0  0  0  0  0  0  0  0  0  0
    6.0584   10.8913   27.7626 C   0  0  0  0  0  0  0  0  0  0  0  0
    6.0581    9.8637   28.7172 C   0  0  0  0  0  0  0  0  0  0  0  0
    6.3655   10.1319   30.0536 C   0  0  0  0  0  0  0  0  0  0  0  0
    6.6725   11.4311   30.4527 C   0  0  0  0  0  0  0  0  0  0  0  0
    6.6520   12.4662   29.5209 C   0  0  0  0  0  0  0  0  0  0  0  0
    6.3342   12.1997   28.1875 C   0  0  0  0  0  0  0  0  0  0  0  0
    8.4369   10.1204   23.6123 C   0  0  0  0  0  0  0  0  0  0  0  0
   11.3000   13.6954   22.1591 C   0  0  0  0  0  0  0  0  0  0  0  0
   11.6274   14.8419   21.2275 C   0  0  0  0  0  0  0  0  0  0  0  0
   10.5403   14.8317   20.3129 N   0  0  0  0  0  0  0  0  0  0  0  0
    9.4122   14.2924   20.8930 C   0  0  0  0  0  0  0  0  0  0  0  0
    8.2963   14.5308   20.4701 O   0  0  0  0  0  0  0  0  0  0  0  0
  1  2  1  0
  3  2  1  1
  3  4  1  0
  4  5  2  0
  4  6  1  0
  6  7  1  0
  7  8  1  0
  8  9  1  0
  9 10  1  0
 10 11  1  1
 11 12  1  0
 12 13  1  0
 13 14  2  0
 14 15  1  0
 15 16  2  0
 16 17  1  0
 17 18  2  0
 10 19  1  0
  3 20  1  0
 20 21  1  0
 21 22  1  0
 22 23  1  0
 23 24  2  0
 23  3  1  0
 19  6  1  0
 18 13  1  0
M  END
>  <distance_score>  (29) 
1.803817

>  <ref_pdb>  (29) 
A0310a

>  <ref_mols>  (29) 
A0528a,A0365a

>  <alias>  (29) 
None

>  <original SMILES>  (29) 
CC[C@]1(C(=O)N2CCC[C@H](NCc3ccccc3)C2)CCNC1=O

>  <inchikey>  (29) 
MYWCACHSFGNPKZ-LPHOPBHVSA-N

>  <exports>  (29) 
['/opt/xchem-fragalysis-2/maxwin/2A_HIPPO/hippo/A71EV2A_10_recipes/Recipe_1LPVPY0_poses.sdf']

>  <original ID>  (29) 
MYWCACHSFGNPKZ-LPHOPBHVSA-N

>  <energy_score>  (29) 
53.479331

>  <tags>  (29) 
[]

>  <HIPPO ID>  (29) 
35316

>  <name>  (29) 
MYWCACHSFGNPKZ-LPHOPBHVSA-N

$$$$
MYWCACHSFGNPKZ-LPHOPBHVSA-N
     RDKit          3D

 24 26  0  0  0  0  0  0  0  0999 V2000
   11.2949   13.9942   25.2894 C   0  0  0  0  0  0  0  0  0  0  0  0
   10.6123   14.5803   24.0949 C   0  0  0  0  0  0  0  0  0  0  0  0
   10.5601   13.6751   22.8681 C   0  0  2  0  0  0  0  0  0  0  0  0
    9.9882   12.2927   23.2919 C   0  0  0  0  0  0  0  0  0  0  0  0
   10.7762   11.3549   23.4448 O   0  0  0  0  0  0  0  0  0  0  0  0
    8.6726   12.1289   23.7428 N   0  0  0  0  0  0  0  0  0  0  0  0
    7.7050   13.2048   23.8056 C   0  0  0  0  0  0  0  0  0  0  0  0
    7.4918   13.6325   25.2345 C   0  0  0  0  0  0  0  0  0  0  0  0
    6.9944   12.4978   26.0832 C   0  0  0  0  0  0  0  0  0  0  0  0
    7.0216   11.1261   25.4139 C   0  0  2  0  0  0  0  0  0  0  0  0
    6.7029   10.0736   26.3859 N   0  0  0  0  0  0  0  0  0  0  0  0
    5.4833   10.3197   27.1777 C   0  0  0  0  0  0  0  0  0  0  0  0
    5.8201   10.7167   28.6018 C   0  0  0  0  0  0  0  0  0  0  0  0
    6.1259    9.7151   29.5263 C   0  0  0  0  0  0  0  0  0  0  0  0
    6.5997   10.0278   30.8012 C   0  0  0  0  0  0  0  0  0  0  0  0
    6.7583   11.3581   31.1768 C   0  0  0  0  0  0  0  0  0  0  0  0
    6.3960   12.3705   30.2952 C   0  0  0  0  0  0  0  0  0  0  0  0
    5.9050   12.0494   29.0280 C   0  0  0  0  0  0  0  0  0  0  0  0
    8.3230   10.9348   24.5683 C   0  0  0  0  0  0  0  0  0  0  0  0
   12.0073   13.6079   22.3282 C   0  0  0  0  0  0  0  0  0  0  0  0
   12.2108   14.8974   21.5555 C   0  0  0  0  0  0  0  0  0  0  0  0
   10.8951   15.2210   21.1183 N   0  0  0  0  0  0  0  0  0  0  0  0
    9.9357   14.4250   21.7026 C   0  0  0  0  0  0  0  0  0  0  0  0
    8.7835   14.4488   21.3083 O   0  0  0  0  0  0  0  0  0  0  0  0
  1  2  1  0
  3  2  1  1
  3  4  1  0
  4  5  2  0
  4  6  1  0
  6  7  1  0
  7  8  1  0
  8  9  1  0
  9 10  1  0
 10 11  1  1
 11 12  1  0
 12 13  1  0
 13 14  2  0
 14 15  1  0
 15 16  2  0
 16 17  1  0
 17 18  2  0
 10 19  1  0
  3 20  1  0
 20 21  1  0
 21 22  1  0
 22 23  1  0
 23 24  2  0
 23  3  1  0
 19  6  1  0
 18 13  1  0
M  END
>  <distance_score>  (30) 
1.960599

>  <ref_pdb>  (30) 
A0310a

>  <ref_mols>  (30) 
A0528a,A0365a

>  <alias>  (30) 
None

>  <original SMILES>  (30) 
CC[C@]1(C(=O)N2CCC[C@H](NCc3ccccc3)C2)CCNC1=O

>  <inchikey>  (30) 
MYWCACHSFGNPKZ-LPHOPBHVSA-N

>  <exports>  (30) 
['/opt/xchem-fragalysis-2/maxwin/2A_HIPPO/hippo/A71EV2A_10_recipes/Recipe_1LPVPY0_poses.sdf']

>  <original ID>  (30) 
MYWCACHSFGNPKZ-LPHOPBHVSA-N

>  <energy_score>  (30) 
-55.614856

>  <tags>  (30) 
[]

>  <HIPPO ID>  (30) 
35317

>  <name>  (30) 
MYWCACHSFGNPKZ-LPHOPBHVSA-N

$$$$
MYWCACHSFGNPKZ-APWZRJJASA-N
     RDKit          3D

 24 26  0  0  0  0  0  0  0  0999 V2000
   11.8112   14.3700   24.8524 C   0  0  0  0  0  0  0  0  0  0  0  0
   10.6314   14.6754   23.9365 C   0  0  0  0  0  0  0  0  0  0  0  0
   10.2849   13.7404   22.7616 C   0  0  2  0  0  0  0  0  0  0  0  0
    9.1203   12.6192   22.9239 C   0  0  0  0  0  0  0  0  0  0  0  0
    8.0221   12.7321   22.3776 O   0  0  0  0  0  0  0  0  0  0  0  0
    9.2597   11.6115   23.8893 N   0  0  0  0  0  0  0  0  0  0  0  0
    9.3054   12.2884   25.0960 C   0  0  0  0  0  0  0  0  0  0  0  0
    8.0255   13.0691   25.4266 C   0  0  0  0  0  0  0  0  0  0  0  0
    6.8197   12.1974   25.1497 C   0  0  0  0  0  0  0  0  0  0  0  0
    7.2494   10.7438   25.3415 C   0  0  1  0  0  0  0  0  0  0  0  0
    6.1655    9.8461   25.7061 N   0  0  0  0  0  0  0  0  0  0  0  0
    5.2863   10.3076   26.8012 C   0  0  0  0  0  0  0  0  0  0  0  0
    5.9066   10.6505   28.1439 C   0  0  0  0  0  0  0  0  0  0  0  0
    6.0854    9.6546   29.1089 C   0  0  0  0  0  0  0  0  0  0  0  0
    6.6269    9.9580   30.3636 C   0  0  0  0  0  0  0  0  0  0  0  0
    7.0013   11.2634   30.6724 C   0  0  0  0  0  0  0  0  0  0  0  0
    6.8034   12.2731   29.7381 C   0  0  0  0  0  0  0  0  0  0  0  0
    6.2434   11.9697   28.4940 C   0  0  0  0  0  0  0  0  0  0  0  0
    8.3362   10.4250   24.1602 C   0  0  0  0  0  0  0  0  0  0  0  0
   11.6286   13.2268   22.2694 C   0  0  0  0  0  0  0  0  0  0  0  0
   12.1058   14.2096   21.2158 C   0  0  0  0  0  0  0  0  0  0  0  0
   10.9594   14.9380   20.8249 N   0  0  0  0  0  0  0  0  0  0  0  0
    9.8689   14.6563   21.5991 C   0  0  0  0  0  0  0  0  0  0  0  0
    8.7778   15.1516   21.3822 O   0  0  0  0  0  0  0  0  0  0  0  0
  1  2  1  0
  3  2  1  1
  3  4  1  0
  4  5  2  0
  4  6  1  0
  6  7  1  0
  7  8  1  0
  8  9  1  0
  9 10  1  0
 10 11  1  6
 11 12  1  0
 12 13  1  0
 13 14  2  0
 14 15  1  0
 15 16  2  0
 16 17  1  0
 17 18  2  0
 10 19  1  0
  3 20  1  0
 20 21  1  0
 21 22  1  0
 22 23  1  0
 23 24  2  0
 23  3  1  0
 19  6  1  0
 18 13  1  0
M  END
>  <distance_score>  (31) 
1.978678

>  <ref_pdb>  (31) 
A0310a

>  <ref_mols>  (31) 
A0528a,A0365a

>  <alias>  (31) 
None

>  <original SMILES>  (31) 
CC[C@]1(C(=O)N2CCC[C@@H](NCc3ccccc3)C2)CCNC1=O

>  <inchikey>  (31) 
MYWCACHSFGNPKZ-APWZRJJASA-N

>  <exports>  (31) 
['/opt/xchem-fragalysis-2/maxwin/2A_HIPPO/hippo/A71EV2A_10_recipes/Recipe_1LPVPY0_poses.sdf']

>  <original ID>  (31) 
MYWCACHSFGNPKZ-APWZRJJASA-N

>  <energy_score>  (31) 
12.289156

>  <tags>  (31) 
[]

>  <HIPPO ID>  (31) 
35318

>  <name>  (31) 
MYWCACHSFGNPKZ-APWZRJJASA-N

$$$$
MYWCACHSFGNPKZ-APWZRJJASA-N
     RDKit          3D

 24 26  0  0  0  0  0  0  0  0999 V2000
   11.2968   13.8858   25.2794 C   0  0  0  0  0  0  0  0  0  0  0  0
   10.5743   14.5302   24.1428 C   0  0  0  0  0  0  0  0  0  0  0  0
   10.5699   13.7022   22.8495 C   0  0  2  0  0  0  0  0  0  0  0  0
    9.9815   12.3031   23.1531 C   0  0  0  0  0  0  0  0  0  0  0  0
   10.7199   11.3171   23.1849 O   0  0  0  0  0  0  0  0  0  0  0  0
    8.6814   12.1910   23.6526 N   0  0  0  0  0  0  0  0  0  0  0  0
    7.6678   13.2252   23.4660 C   0  0  0  0  0  0  0  0  0  0  0  0
    6.7140   13.3974   24.6164 C   0  0  0  0  0  0  0  0  0  0  0  0
    7.2911   12.8006   25.8593 C   0  0  0  0  0  0  0  0  0  0  0  0
    7.4951   11.2896   25.7119 C   0  0  1  0  0  0  0  0  0  0  0  0
    6.3170   10.4365   25.9305 N   0  0  0  0  0  0  0  0  0  0  0  0
    5.3728   10.8370   26.9800 C   0  0  0  0  0  0  0  0  0  0  0  0
    5.9174   10.9646   28.3878 C   0  0  0  0  0  0  0  0  0  0  0  0
    6.1968    9.8253   29.1481 C   0  0  0  0  0  0  0  0  0  0  0  0
    6.7216    9.9419   30.4402 C   0  0  0  0  0  0  0  0  0  0  0  0
    6.9842   11.1957   30.9856 C   0  0  0  0  0  0  0  0  0  0  0  0
    6.6712   12.3379   30.2616 C   0  0  0  0  0  0  0  0  0  0  0  0
    6.1127   12.2196   28.9887 C   0  0  0  0  0  0  0  0  0  0  0  0
    8.2801   10.9763   24.3993 C   0  0  0  0  0  0  0  0  0  0  0  0
   12.0268   13.6490   22.3327 C   0  0  0  0  0  0  0  0  0  0  0  0
   12.2532   14.9785   21.6418 C   0  0  0  0  0  0  0  0  0  0  0  0
   10.9490   15.3228   21.1838 N   0  0  0  0  0  0  0  0  0  0  0  0
    9.9776   14.5044   21.7049 C   0  0  0  0  0  0  0  0  0  0  0  0
    8.8395   14.5348   21.2713 O   0  0  0  0  0  0  0  0  0  0  0  0
  1  2  1  0
  3  2  1  1
  3  4  1  0
  4  5  2  0
  4  6  1  0
  6  7  1  0
  7  8  1  0
  8  9  1  0
  9 10  1  0
 10 11  1  6
 11 12  1  0
 12 13  1  0
 13 14  2  0
 14 15  1  0
 15 16  2  0
 16 17  1  0
 17 18  2  0
 10 19  1  0
  3 20  1  0
 20 21  1  0
 21 22  1  0
 22 23  1  0
 23 24  2  0
 23  3  1  0
 19  6  1  0
 18 13  1  0
M  END
>  <distance_score>  (32) 
1.963853

>  <ref_pdb>  (32) 
A0310a

>  <ref_mols>  (32) 
A0528a,A0365a

>  <alias>  (32) 
None

>  <original SMILES>  (32) 
CC[C@]1(C(=O)N2CCC[C@@H](NCc3ccccc3)C2)CCNC1=O

>  <inchikey>  (32) 
MYWCACHSFGNPKZ-APWZRJJASA-N

>  <exports>  (32) 
['/opt/xchem-fragalysis-2/maxwin/2A_HIPPO/hippo/A71EV2A_10_recipes/Recipe_1LPVPY0_poses.sdf']

>  <original ID>  (32) 
MYWCACHSFGNPKZ-APWZRJJASA-N

>  <energy_score>  (32) 
-26.915986

>  <tags>  (32) 
[]

>  <HIPPO ID>  (32) 
35319

>  <name>  (32) 
MYWCACHSFGNPKZ-APWZRJJASA-N

$$$$
CUXQDSVRBNSPDR-LPHOPBHVSA-N
     RDKit          3D

 24 26  0  0  0  0  0  0  0  0999 V2000
    7.3130   15.2136   25.5632 C   0  0  0  0  0  0  0  0  0  0  0  0
    8.7770   14.8198   25.5390 C   0  0  0  0  0  0  0  0  0  0  0  0
    9.2572   13.9927   24.3325 C   0  0  2  0  0  0  0  0  0  0  0  0
    8.0851   12.9850   24.2267 C   0  0  0  0  0  0  0  0  0  0  0  0
    7.2987   13.0118   23.2781 O   0  0  0  0  0  0  0  0  0  0  0  0
    7.9312   11.9532   25.1789 N   0  0  0  0  0  0  0  0  0  0  0  0
    6.5644   11.8359   25.8251 C   0  0  0  0  0  0  0  0  0  0  0  0
    6.5603   11.6377   27.3379 C   0  0  0  0  0  0  0  0  0  0  0  0
    6.0772   10.4459   27.9105 C   0  0  0  0  0  0  0  0  0  0  0  0
    6.0747   10.2569   29.3001 C   0  0  0  0  0  0  0  0  0  0  0  0
    6.5388   11.2607   30.1457 C   0  0  0  0  0  0  0  0  0  0  0  0
    6.9856   12.4596   29.6021 C   0  0  0  0  0  0  0  0  0  0  0  0
    6.9877   12.6452   28.2148 C   0  0  0  0  0  0  0  0  0  0  0  0
    8.2378   10.8209   24.3281 C   0  0  1  0  0  0  0  0  0  0  0  0
    9.5086   11.0114   23.4719 C   0  0  0  0  0  0  0  0  0  0  0  0
   10.0848    9.8021   22.8318 C   0  0  0  0  0  0  0  0  0  0  0  0
    9.2086    8.6365   22.9760 C   0  0  0  0  0  0  0  0  0  0  0  0
    8.9511    8.5467   24.3777 N   0  0  0  0  0  0  0  0  0  0  0  0
    8.0819    9.4988   24.9725 C   0  0  0  0  0  0  0  0  0  0  0  0
   10.7446   13.6898   24.7056 C   0  0  0  0  0  0  0  0  0  0  0  0
   11.6002   13.8193   23.4631 C   0  0  0  0  0  0  0  0  0  0  0  0
   10.8789   14.7407   22.6716 N   0  0  0  0  0  0  0  0  0  0  0  0
    9.5241   14.5931   22.9046 C   0  0  0  0  0  0  0  0  0  0  0  0
    8.7232   14.9061   22.0389 O   0  0  0  0  0  0  0  0  0  0  0  0
  1  2  1  0
  3  2  1  1
  3  4  1  0
  4  5  2  0
  4  6  1  0
  6  7  1  0
  7  8  1  0
  8  9  2  0
  9 10  1  0
 10 11  2  0
 11 12  1  0
 12 13  2  0
 14  6  1  1
 14 15  1  0
 15 16  1  0
 16 17  1  0
 17 18  1  0
 18 19  1  0
  3 20  1  0
 20 21  1  0
 21 22  1  0
 22 23  1  0
 23 24  2  0
 23  3  1  0
 13  8  1  0
 19 14  1  0
M  END
>  <distance_score>  (33) 
2.156828

>  <ref_pdb>  (33) 
A0310a

>  <ref_mols>  (33) 
A0528a,A0365a

>  <alias>  (33) 
None

>  <original SMILES>  (33) 
CC[C@]1(C(=O)N(Cc2ccccc2)[C@H]2CCCNC2)CCNC1=O

>  <inchikey>  (33) 
CUXQDSVRBNSPDR-LPHOPBHVSA-N

>  <exports>  (33) 
['/opt/xchem-fragalysis-2/maxwin/2A_HIPPO/hippo/A71EV2A_10_recipes/Recipe_1LPVPY0_poses.sdf']

>  <original ID>  (33) 
CUXQDSVRBNSPDR-LPHOPBHVSA-N

>  <energy_score>  (33) 
-1.180983

>  <tags>  (33) 
[]

>  <HIPPO ID>  (33) 
35320

>  <name>  (33) 
CUXQDSVRBNSPDR-LPHOPBHVSA-N

$$$$
CUXQDSVRBNSPDR-QFBILLFUSA-N
     RDKit          3D

 24 26  0  0  0  0  0  0  0  0999 V2000
    7.8120   13.5172   22.1886 C   0  0  0  0  0  0  0  0  0  0  0  0
    8.6823   14.4916   22.8704 C   0  0  0  0  0  0  0  0  0  0  0  0
    9.8271   13.9736   23.7083 C   0  0  1  0  0  0  0  0  0  0  0  0
    9.0896   13.7219   25.1829 C   0  0  0  0  0  0  0  0  0  0  0  0
    9.3610   14.5130   26.0973 O   0  0  0  0  0  0  0  0  0  0  0  0
    8.0259   12.7671   25.4337 N   0  0  0  0  0  0  0  0  0  0  0  0
    6.8560   13.1303   26.2960 C   0  0  0  0  0  0  0  0  0  0  0  0
    6.8260   12.6025   27.7254 C   0  0  0  0  0  0  0  0  0  0  0  0
    6.0236   11.5210   28.1371 C   0  0  0  0  0  0  0  0  0  0  0  0
    6.0474   11.0579   29.4598 C   0  0  0  0  0  0  0  0  0  0  0  0
    6.8360   11.7008   30.4078 C   0  0  0  0  0  0  0  0  0  0  0  0
    7.5863   12.8110   30.0345 C   0  0  0  0  0  0  0  0  0  0  0  0
    7.5763   13.2566   28.7090 C   0  0  0  0  0  0  0  0  0  0  0  0
    7.9302   11.5208   24.7135 C   0  0  1  0  0  0  0  0  0  0  0  0
    9.3005   10.9814   24.5312 C   0  0  0  0  0  0  0  0  0  0  0  0
    9.4072    9.9845   23.4382 C   0  0  0  0  0  0  0  0  0  0  0  0
    8.5485    8.8335   23.8451 C   0  0  0  0  0  0  0  0  0  0  0  0
    7.4176    9.1291   24.6913 N   0  0  0  0  0  0  0  0  0  0  0  0
    7.2032   10.3650   25.3846 C   0  0  0  0  0  0  0  0  0  0  0  0
   10.7825   13.0640   22.9153 C   0  0  0  0  0  0  0  0  0  0  0  0
   12.0957   13.1267   23.6868 C   0  0  0  0  0  0  0  0  0  0  0  0
   12.1255   14.4309   24.2313 N   0  0  0  0  0  0  0  0  0  0  0  0
   10.9851   15.0251   23.7538 C   0  0  0  0  0  0  0  0  0  0  0  0
   11.1113   16.0820   23.1486 O   0  0  0  0  0  0  0  0  0  0  0  0
  1  2  1  0
  3  2  1  6
  3  4  1  0
  4  5  2  0
  4  6  1  0
  6  7  1  0
  7  8  1  0
  8  9  2  0
  9 10  1  0
 10 11  2  0
 11 12  1  0
 12 13  2  0
 14  6  1  1
 14 15  1  0
 15 16  1  0
 16 17  1  0
 17 18  1  0
 18 19  1  0
  3 20  1  0
 20 21  1  0
 21 22  1  0
 22 23  1  0
 23 24  2  0
 23  3  1  0
 13  8  1  0
 19 14  1  0
M  END
>  <distance_score>  (34) 
2.018365

>  <ref_pdb>  (34) 
A0310a

>  <ref_mols>  (34) 
A0528a,A0365a

>  <alias>  (34) 
None

>  <original SMILES>  (34) 
CC[C@@]1(C(=O)N(Cc2ccccc2)[C@H]2CCCNC2)CCNC1=O

>  <inchikey>  (34) 
CUXQDSVRBNSPDR-QFBILLFUSA-N

>  <exports>  (34) 
['/opt/xchem-fragalysis-2/maxwin/2A_HIPPO/hippo/A71EV2A_10_recipes/Recipe_1LPVPY0_poses.sdf']

>  <original ID>  (34) 
CUXQDSVRBNSPDR-QFBILLFUSA-N

>  <energy_score>  (34) 
38.86797

>  <tags>  (34) 
[]

>  <HIPPO ID>  (34) 
35321

>  <name>  (34) 
CUXQDSVRBNSPDR-QFBILLFUSA-N

$$$$
CUXQDSVRBNSPDR-VQIMIIECSA-N
     RDKit          3D

 24 26  0  0  0  0  0  0  0  0999 V2000
   13.0077   13.3046   24.6838 C   0  0  0  0  0  0  0  0  0  0  0  0
   11.8147   13.1242   23.7569 C   0  0  0  0  0  0  0  0  0  0  0  0
   10.8045   14.2864   23.7185 C   0  0  1  0  0  0  0  0  0  0  0  0
    9.7257   14.2594   24.8559 C   0  0  0  0  0  0  0  0  0  0  0  0
    9.7790   15.1277   25.7394 O   0  0  0  0  0  0  0  0  0  0  0  0
    8.6624   13.3362   24.8694 N   0  0  0  0  0  0  0  0  0  0  0  0
    7.3445   13.8165   25.3546 C   0  0  0  0  0  0  0  0  0  0  0  0
    6.9516   13.4782   26.7848 C   0  0  0  0  0  0  0  0  0  0  0  0
    5.8116   12.6949   27.0451 C   0  0  0  0  0  0  0  0  0  0  0  0
    5.4611   12.3418   28.3521 C   0  0  0  0  0  0  0  0  0  0  0  0
    6.2204   12.7990   29.4251 C   0  0  0  0  0  0  0  0  0  0  0  0
    7.3191   13.6203   29.1902 C   0  0  0  0  0  0  0  0  0  0  0  0
    7.6751   13.9624   27.8816 C   0  0  0  0  0  0  0  0  0  0  0  0
    8.8652   11.8944   24.6318 C   0  0  2  0  0  0  0  0  0  0  0  0
    9.1590   11.5112   23.1988 C   0  0  0  0  0  0  0  0  0  0  0  0
    9.6742   10.0922   23.1126 C   0  0  0  0  0  0  0  0  0  0  0  0
    8.7685    9.0959   23.7817 C   0  0  0  0  0  0  0  0  0  0  0  0
    8.1432    9.5213   25.0220 N   0  0  0  0  0  0  0  0  0  0  0  0
    7.7799   10.9217   25.1331 C   0  0  0  0  0  0  0  0  0  0  0  0
   11.6838   15.5717   23.6592 C   0  0  0  0  0  0  0  0  0  0  0  0
   12.0983   15.7003   22.2066 C   0  0  0  0  0  0  0  0  0  0  0  0
   11.0164   15.1094   21.4950 N   0  0  0  0  0  0  0  0  0  0  0  0
   10.1315   14.4878   22.3479 C   0  0  0  0  0  0  0  0  0  0  0  0
    8.9833   14.2279   22.0235 O   0  0  0  0  0  0  0  0  0  0  0  0
  1  2  1  0
  3  2  1  6
  3  4  1  0
  4  5  2  0
  4  6  1  0
  6  7  1  0
  7  8  1  0
  8  9  2  0
  9 10  1  0
 10 11  2  0
 11 12  1  0
 12 13  2  0
 14  6  1  6
 14 15  1  0
 15 16  1  0
 16 17  1  0
 17 18  1  0
 18 19  1  0
  3 20  1  0
 20 21  1  0
 21 22  1  0
 22 23  1  0
 23 24  2  0
 23  3  1  0
 13  8  1  0
 19 14  1  0
M  END
>  <distance_score>  (35) 
2.677294

>  <ref_pdb>  (35) 
A0310a

>  <ref_mols>  (35) 
A0528a,A0365a

>  <alias>  (35) 
None

>  <original SMILES>  (35) 
CC[C@@]1(C(=O)N(Cc2ccccc2)[C@@H]2CCCNC2)CCNC1=O

>  <inchikey>  (35) 
CUXQDSVRBNSPDR-VQIMIIECSA-N

>  <exports>  (35) 
['/opt/xchem-fragalysis-2/maxwin/2A_HIPPO/hippo/A71EV2A_10_recipes/Recipe_1LPVPY0_poses.sdf']

>  <original ID>  (35) 
CUXQDSVRBNSPDR-VQIMIIECSA-N

>  <energy_score>  (35) 
-22.469057

>  <tags>  (35) 
[]

>  <HIPPO ID>  (35) 
35322

>  <name>  (35) 
CUXQDSVRBNSPDR-VQIMIIECSA-N

$$$$
CUXQDSVRBNSPDR-QFBILLFUSA-N
     RDKit          3D

 24 26  0  0  0  0  0  0  0  0999 V2000
    7.8473   14.3197   22.2430 C   0  0  0  0  0  0  0  0  0  0  0  0
    9.1315   13.5140   22.2696 C   0  0  0  0  0  0  0  0  0  0  0  0
   10.0809   13.7698   23.4309 C   0  0  1  0  0  0  0  0  0  0  0  0
    9.2457   13.4799   24.7322 C   0  0  0  0  0  0  0  0  0  0  0  0
    9.2657   14.3263   25.6280 O   0  0  0  0  0  0  0  0  0  0  0  0
    8.4638   12.2844   24.9603 N   0  0  0  0  0  0  0  0  0  0  0  0
    7.1167   12.5007   25.6456 C   0  0  0  0  0  0  0  0  0  0  0  0
    6.9405   12.1594   27.1209 C   0  0  0  0  0  0  0  0  0  0  0  0
    6.2855   10.9925   27.5621 C   0  0  0  0  0  0  0  0  0  0  0  0
    6.1226   10.7234   28.9308 C   0  0  0  0  0  0  0  0  0  0  0  0
    6.5849   11.6291   29.8824 C   0  0  0  0  0  0  0  0  0  0  0  0
    7.1877   12.8121   29.4651 C   0  0  0  0  0  0  0  0  0  0  0  0
    7.3527   13.0763   28.1002 C   0  0  0  0  0  0  0  0  0  0  0  0
    8.5521   11.0495   24.1398 C   0  0  1  0  0  0  0  0  0  0  0  0
    9.8479   10.7482   23.3610 C   0  0  0  0  0  0  0  0  0  0  0  0
    9.9977    9.4265   22.6781 C   0  0  0  0  0  0  0  0  0  0  0  0
    8.8064    8.6131   22.9407 C   0  0  0  0  0  0  0  0  0  0  0  0
    8.6147    8.5413   24.3630 N   0  0  0  0  0  0  0  0  0  0  0  0
    8.1155    9.7967   24.9062 C   0  0  0  0  0  0  0  0  0  0  0  0
   11.4999   13.1836   23.6292 C   0  0  0  0  0  0  0  0  0  0  0  0
   12.2767   14.2760   24.3614 C   0  0  0  0  0  0  0  0  0  0  0  0
   11.7460   15.4615   23.8148 N   0  0  0  0  0  0  0  0  0  0  0  0
   10.7035   15.1041   23.0012 C   0  0  0  0  0  0  0  0  0  0  0  0
   10.5339   15.6905   21.9391 O   0  0  0  0  0  0  0  0  0  0  0  0
  1  2  1  0
  3  2  1  6
  3  4  1  0
  4  5  2  0
  4  6  1  0
  6  7  1  0
  7  8  1  0
  8  9  2  0
  9 10  1  0
 10 11  2  0
 11 12  1  0
 12 13  2  0
 14  6  1  1
 14 15  1  0
 15 16  1  0
 16 17  1  0
 17 18  1  0
 18 19  1  0
  3 20  1  0
 20 21  1  0
 21 22  1  0
 22 23  1  0
 23 24  2  0
 23  3  1  0
 13  8  1  0
 19 14  1  0
M  END
>  <distance_score>  (36) 
2.148176

>  <ref_pdb>  (36) 
A0310a

>  <ref_mols>  (36) 
A0528a,A0365a

>  <alias>  (36) 
None

>  <original SMILES>  (36) 
CC[C@@]1(C(=O)N(Cc2ccccc2)[C@H]2CCCNC2)CCNC1=O

>  <inchikey>  (36) 
CUXQDSVRBNSPDR-QFBILLFUSA-N

>  <exports>  (36) 
['/opt/xchem-fragalysis-2/maxwin/2A_HIPPO/hippo/A71EV2A_10_recipes/Recipe_1LPVPY0_poses.sdf']

>  <original ID>  (36) 
CUXQDSVRBNSPDR-QFBILLFUSA-N

>  <energy_score>  (36) 
19.254644

>  <tags>  (36) 
[]

>  <HIPPO ID>  (36) 
35323

>  <name>  (36) 
CUXQDSVRBNSPDR-QFBILLFUSA-N

$$$$
ZGAPODHVEGIIKR-UHFFFAOYSA-N
     RDKit          3D

 24 26  0  0  0  0  0  0  0  0999 V2000
    8.5144   14.7685   21.8601 O   0  0  0  0  0  0  0  0  0  0  0  0
    9.6114   14.3966   22.2382 C   0  0  0  0  0  0  0  0  0  0  0  0
   10.7708   15.1339   22.0080 N   0  0  0  0  0  0  0  0  0  0  0  0
   11.8309   14.6277   22.8247 C   0  0  0  0  0  0  0  0  0  0  0  0
   11.3856   13.1946   23.1013 C   0  0  0  0  0  0  0  0  0  0  0  0
    9.9520   13.2537   22.9870 N   0  0  0  0  0  0  0  0  0  0  0  0
    9.0531   12.3737   23.6416 C   0  0  0  0  0  0  0  0  0  0  0  0
    7.8964   12.9015   24.1997 C   0  0  0  0  0  0  0  0  0  0  0  0
    7.0618   12.1273   25.0115 C   0  0  0  0  0  0  0  0  0  0  0  0
    7.2933   10.7729   25.2358 C   0  0  0  0  0  0  0  0  0  0  0  0
    6.5464   10.0113   26.1136 N   0  0  0  0  0  0  0  0  0  0  0  0
    5.4597   10.5155   26.9350 C   0  0  0  0  0  0  0  0  0  0  0  0
    5.9876   10.9034   28.2976 C   0  0  0  0  0  0  0  0  0  0  0  0
    6.0798    9.9404   29.3114 C   0  0  0  0  0  0  0  0  0  0  0  0
    6.6904   10.2466   30.5289 C   0  0  0  0  0  0  0  0  0  0  0  0
    7.2150   11.5265   30.7595 C   0  0  0  0  0  0  0  0  0  0  0  0
    7.9797   11.8230   32.0246 C   0  0  0  0  0  0  0  0  0  0  0  0
    7.5905   11.0553   33.0790 F   0  0  0  0  0  0  0  0  0  0  0  0
    9.3145   11.5929   31.8677 F   0  0  0  0  0  0  0  0  0  0  0  0
    7.8676   13.1153   32.4341 F   0  0  0  0  0  0  0  0  0  0  0  0
    7.0843   12.5034   29.7627 C   0  0  0  0  0  0  0  0  0  0  0  0
    6.4725   12.1952   28.5458 C   0  0  0  0  0  0  0  0  0  0  0  0
    8.4019   10.2181   24.5882 C   0  0  0  0  0  0  0  0  0  0  0  0
    9.2878   11.0092   23.8247 C   0  0  0  0  0  0  0  0  0  0  0  0
  1  2  2  0
  2  3  1  0
  3  4  1  0
  4  5  1  0
  5  6  1  0
  6  7  1  0
  7  8  2  0
  8  9  1  0
  9 10  2  0
 10 11  1  0
 11 12  1  0
 12 13  1  0
 13 14  2  0
 14 15  1  0
 15 16  2  0
 16 17  1  0
 17 18  1  0
 17 19  1  0
 17 20  1  0
 16 21  1  0
 21 22  2  0
 10 23  1  0
 23 24  2  0
  6  2  1  0
 24  7  1  0
 22 13  1  0
M  END
>  <distance_score>  (37) 
1.55202

>  <ref_pdb>  (37) 
A0310a

>  <ref_mols>  (37) 
A0528a,A0365a

>  <alias>  (37) 
None

>  <original SMILES>  (37) 
O=C1NCCN1c1ccc(NCc2ccc(C(F)(F)F)cc2)cc1

>  <inchikey>  (37) 
ZGAPODHVEGIIKR-UHFFFAOYSA-N

>  <exports>  (37) 
['/opt/xchem-fragalysis-2/maxwin/2A_HIPPO/hippo/A71EV2A_10_recipes/Recipe_1LPUPHX_poses.sdf', '/opt/xchem-fragalysis-2/maxwin/2A_HIPPO/hippo/A71EV2A_10_recipes/Recipe_1LPVPY0_poses.sdf']

>  <original ID>  (37) 
ZGAPODHVEGIIKR-UHFFFAOYSA-N

>  <energy_score>  (37) 
-29.860901

>  <tags>  (37) 
['Syndirella scaffold']

>  <HIPPO ID>  (37) 
35592

>  <name>  (37) 
ZGAPODHVEGIIKR-UHFFFAOYSA-N

$$$$
PQWDNHHMWZLDOS-UHFFFAOYSA-N
     RDKit          3D

 25 27  0  0  0  0  0  0  0  0999 V2000
    8.5093   14.7716   21.8607 O   0  0  0  0  0  0  0  0  0  0  0  0
    9.6071   14.3993   22.2369 C   0  0  0  0  0  0  0  0  0  0  0  0
   10.7657   15.1366   22.0052 N   0  0  0  0  0  0  0  0  0  0  0  0
   11.8308   14.6248   22.8120 C   0  0  0  0  0  0  0  0  0  0  0  0
   11.3828   13.1930   23.0907 C   0  0  0  0  0  0  0  0  0  0  0  0
    9.9486   13.2565   22.9853 N   0  0  0  0  0  0  0  0  0  0  0  0
    9.0509   12.3749   23.6389 C   0  0  0  0  0  0  0  0  0  0  0  0
    7.8933   12.9014   24.1964 C   0  0  0  0  0  0  0  0  0  0  0  0
    7.0602   12.1271   25.0096 C   0  0  0  0  0  0  0  0  0  0  0  0
    7.2954   10.7739   25.2375 C   0  0  0  0  0  0  0  0  0  0  0  0
    6.5571   10.0130   26.1253 N   0  0  0  0  0  0  0  0  0  0  0  0
    5.4600   10.5159   26.9324 C   0  0  0  0  0  0  0  0  0  0  0  0
    5.9785   10.9080   28.2973 C   0  0  0  0  0  0  0  0  0  0  0  0
    6.0364    9.9593   29.3239 C   0  0  0  0  0  0  0  0  0  0  0  0
    6.6415   10.2711   30.5425 C   0  0  0  0  0  0  0  0  0  0  0  0
    7.2100   11.5390   30.7629 C   0  0  0  0  0  0  0  0  0  0  0  0
    7.9433   11.8186   32.0461 C   0  0  0  0  0  0  0  0  0  0  0  0
    7.9146   10.7621   32.9104 F   0  0  0  0  0  0  0  0  0  0  0  0
    9.2661   12.0749   31.8435 F   0  0  0  0  0  0  0  0  0  0  0  0
    7.4419   12.8720   32.7423 F   0  0  0  0  0  0  0  0  0  0  0  0
    7.1149   12.5000   29.7505 C   0  0  0  0  0  0  0  0  0  0  0  0
    7.7973   14.0773   29.9177 Cl  0  0  0  0  0  0  0  0  0  0  0  0
    6.4978   12.1893   28.5340 C   0  0  0  0  0  0  0  0  0  0  0  0
    8.4041   10.2199   24.5892 C   0  0  0  0  0  0  0  0  0  0  0  0
    9.2877   11.0111   23.8233 C   0  0  0  0  0  0  0  0  0  0  0  0
  1  2  2  0
  2  3  1  0
  3  4  1  0
  4  5  1  0
  5  6  1  0
  6  7  1  0
  7  8  2  0
  8  9  1  0
  9 10  2  0
 10 11  1  0
 11 12  1  0
 12 13  1  0
 13 14  2  0
 14 15  1  0
 15 16  2  0
 16 17  1  0
 17 18  1  0
 17 19  1  0
 17 20  1  0
 16 21  1  0
 21 22  1  0
 21 23  2  0
 10 24  1  0
 24 25  2  0
  6  2  1  0
 25  7  1  0
 23 13  1  0
M  END
>  <distance_score>  (38) 
1.566151

>  <ref_pdb>  (38) 
A0310a

>  <ref_mols>  (38) 
A0528a,A0365a

>  <alias>  (38) 
None

>  <original SMILES>  (38) 
O=C1NCCN1c1ccc(NCc2ccc(C(F)(F)F)c(Cl)c2)cc1

>  <inchikey>  (38) 
PQWDNHHMWZLDOS-UHFFFAOYSA-N

>  <exports>  (38) 
['/opt/xchem-fragalysis-2/maxwin/2A_HIPPO/hippo/A71EV2A_10_recipes/Recipe_1LPVPY0_poses.sdf']

>  <original ID>  (38) 
PQWDNHHMWZLDOS-UHFFFAOYSA-N

>  <energy_score>  (38) 
-31.7195

>  <tags>  (38) 
[]

>  <HIPPO ID>  (38) 
35608

>  <name>  (38) 
PQWDNHHMWZLDOS-UHFFFAOYSA-N

$$$$
XUIDALCITPTYNC-UHFFFAOYSA-N
     RDKit          3D

 26 28  0  0  0  0  0  0  0  0999 V2000
    8.6237   14.6986   21.8210 O   0  0  0  0  0  0  0  0  0  0  0  0
    9.6870   14.3320   22.2912 C   0  0  0  0  0  0  0  0  0  0  0  0
   10.8537   15.0885   22.1831 N   0  0  0  0  0  0  0  0  0  0  0  0
   11.9759   14.2975   22.5734 C   0  0  0  0  0  0  0  0  0  0  0  0
   11.3421   13.2790   23.5070 C   0  0  0  0  0  0  0  0  0  0  0  0
    9.9906   13.1516   23.0106 N   0  0  0  0  0  0  0  0  0  0  0  0
    9.0483   12.3200   23.6705 C   0  0  0  0  0  0  0  0  0  0  0  0
    7.9068   12.8839   24.2167 C   0  0  0  0  0  0  0  0  0  0  0  0
    7.0527   12.1306   25.0264 C   0  0  0  0  0  0  0  0  0  0  0  0
    7.2563   10.7732   25.2685 C   0  0  0  0  0  0  0  0  0  0  0  0
    6.5002   10.0397   26.1635 N   0  0  0  0  0  0  0  0  0  0  0  0
    5.4319   10.5866   26.9830 C   0  0  0  0  0  0  0  0  0  0  0  0
    5.9673   10.9672   28.3325 C   0  0  0  0  0  0  0  0  0  0  0  0
    6.0527   10.0120   29.3437 C   0  0  0  0  0  0  0  0  0  0  0  0
    5.5580    8.7826   29.1451 F   0  0  0  0  0  0  0  0  0  0  0  0
    6.6753   10.2865   30.5598 C   0  0  0  0  0  0  0  0  0  0  0  0
    7.2283   11.5512   30.7981 C   0  0  0  0  0  0  0  0  0  0  0  0
    8.0019   11.8173   32.0617 C   0  0  0  0  0  0  0  0  0  0  0  0
    7.4592   11.2104   33.1503 F   0  0  0  0  0  0  0  0  0  0  0  0
    9.2799   11.3559   31.9685 F   0  0  0  0  0  0  0  0  0  0  0  0
    8.0993   13.1379   32.3682 F   0  0  0  0  0  0  0  0  0  0  0  0
    7.1034   12.5343   29.8091 C   0  0  0  0  0  0  0  0  0  0  0  0
    6.4753   12.2388   28.5995 C   0  0  0  0  0  0  0  0  0  0  0  0
    6.3962   13.2131   27.6855 F   0  0  0  0  0  0  0  0  0  0  0  0
    8.3483   10.1848   24.6252 C   0  0  0  0  0  0  0  0  0  0  0  0
    9.2479   10.9489   23.8552 C   0  0  0  0  0  0  0  0  0  0  0  0
  1  2  2  0
  2  3  1  0
  3  4  1  0
  4  5  1  0
  5  6  1  0
  6  7  1  0
  7  8  2  0
  8  9  1  0
  9 10  2  0
 10 11  1  0
 11 12  1  0
 12 13  1  0
 13 14  2  0
 14 15  1  0
 14 16  1  0
 16 17  2  0
 17 18  1  0
 18 19  1  0
 18 20  1  0
 18 21  1  0
 17 22  1  0
 22 23  2  0
 23 24  1  0
 10 25  1  0
 25 26  2  0
  6  2  1  0
 26  7  1  0
 23 13  1  0
M  END
>  <distance_score>  (39) 
1.54366

>  <ref_pdb>  (39) 
A0310a

>  <ref_mols>  (39) 
A0528a,A0365a

>  <alias>  (39) 
None

>  <original SMILES>  (39) 
O=C1NCCN1c1ccc(NCc2c(F)cc(C(F)(F)F)cc2F)cc1

>  <inchikey>  (39) 
XUIDALCITPTYNC-UHFFFAOYSA-N

>  <exports>  (39) 
['/opt/xchem-fragalysis-2/maxwin/2A_HIPPO/hippo/A71EV2A_10_recipes/Recipe_1LPVPY0_poses.sdf']

>  <original ID>  (39) 
XUIDALCITPTYNC-UHFFFAOYSA-N

>  <energy_score>  (39) 
-38.405877

>  <tags>  (39) 
[]

>  <HIPPO ID>  (39) 
35891

>  <name>  (39) 
XUIDALCITPTYNC-UHFFFAOYSA-N

$$$$
OLTFWVMUPXNTQQ-UHFFFAOYSA-N
     RDKit          3D

 26 28  0  0  0  0  0  0  0  0999 V2000
   12.7668   15.2182   22.8108 O   0  0  0  0  0  0  0  0  0  0  0  0
   11.7660   14.6060   22.5091 C   0  0  0  0  0  0  0  0  0  0  0  0
   10.7526   15.0036   21.7229 N   0  0  0  0  0  0  0  0  0  0  0  0
    9.6398   14.2990   22.0677 C   0  0  0  0  0  0  0  0  0  0  0  0
    8.5252   14.7284   21.8032 O   0  0  0  0  0  0  0  0  0  0  0  0
    9.9662   13.1788   22.8038 N   0  0  0  0  0  0  0  0  0  0  0  0
    9.0616   12.3441   23.5298 C   0  0  0  0  0  0  0  0  0  0  0  0
    7.9280   12.8970   24.1161 C   0  0  0  0  0  0  0  0  0  0  0  0
    7.1042   12.1421   24.9615 C   0  0  0  0  0  0  0  0  0  0  0  0
    7.3226   10.7866   25.1993 C   0  0  0  0  0  0  0  0  0  0  0  0
    6.5719   10.0392   26.0843 N   0  0  0  0  0  0  0  0  0  0  0  0
    5.4851   10.5443   26.9028 C   0  0  0  0  0  0  0  0  0  0  0  0
    6.0038   10.9225   28.2711 C   0  0  0  0  0  0  0  0  0  0  0  0
    6.0780    9.9563   29.2836 C   0  0  0  0  0  0  0  0  0  0  0  0
    6.6695   10.2579   30.5118 C   0  0  0  0  0  0  0  0  0  0  0  0
    7.2057   11.5317   30.7494 C   0  0  0  0  0  0  0  0  0  0  0  0
    7.8986   11.8411   32.0526 C   0  0  0  0  0  0  0  0  0  0  0  0
    7.0570   12.3639   32.9826 F   0  0  0  0  0  0  0  0  0  0  0  0
    8.9155   12.7368   31.9109 F   0  0  0  0  0  0  0  0  0  0  0  0
    8.4595   10.7385   32.6251 F   0  0  0  0  0  0  0  0  0  0  0  0
    7.0831   12.5147   29.7575 C   0  0  0  0  0  0  0  0  0  0  0  0
    6.4897   12.2118   28.5299 C   0  0  0  0  0  0  0  0  0  0  0  0
    8.4164   10.2120   24.5451 C   0  0  0  0  0  0  0  0  0  0  0  0
    9.2894   10.9795   23.7442 C   0  0  0  0  0  0  0  0  0  0  0  0
   11.2714   13.3150   23.1739 C   0  0  0  0  0  0  0  0  0  0  0  0
   11.9196   12.7225   24.0102 O   0  0  0  0  0  0  0  0  0  0  0  0
  1  2  2  0
  2  3  1  0
  3  4  1  0
  4  5  2  0
  4  6  1  0
  6  7  1  0
  7  8  2  0
  8  9  1  0
  9 10  2  0
 10 11  1  0
 11 12  1  0
 12 13  1  0
 13 14  2  0
 14 15  1  0
 15 16  2  0
 16 17  1  0
 17 18  1  0
 17 19  1  0
 17 20  1  0
 16 21  1  0
 21 22  2  0
 10 23  1  0
 23 24  2  0
  6 25  1  0
 25 26  2  0
 25  2  1  0
 24  7  1  0
 22 13  1  0
M  END
>  <distance_score>  (40) 
1.580894

>  <ref_pdb>  (40) 
A0310a

>  <ref_mols>  (40) 
A0528a,A0365a

>  <alias>  (40) 
None

>  <original SMILES>  (40) 
O=C1NC(=O)N(c2ccc(NCc3ccc(C(F)(F)F)cc3)cc2)C1=O

>  <inchikey>  (40) 
OLTFWVMUPXNTQQ-UHFFFAOYSA-N

>  <exports>  (40) 
['/opt/xchem-fragalysis-2/maxwin/2A_HIPPO/hippo/A71EV2A_10_recipes/Recipe_1LPUPHX_poses.sdf', '/opt/xchem-fragalysis-2/maxwin/2A_HIPPO/hippo/A71EV2A_10_recipes/Recipe_1LPVPY0_poses.sdf']

>  <original ID>  (40) 
OLTFWVMUPXNTQQ-UHFFFAOYSA-N

>  <energy_score>  (40) 
-36.449615

>  <tags>  (40) 
[]

>  <HIPPO ID>  (40) 
35895

>  <name>  (40) 
OLTFWVMUPXNTQQ-UHFFFAOYSA-N

$$$$
DGUVEBGRBAAIFG-UHFFFAOYSA-N
     RDKit          3D

 27 29  0  0  0  0  0  0  0  0999 V2000
   12.7695   15.2168   22.8115 O   0  0  0  0  0  0  0  0  0  0  0  0
   11.7660   14.6082   22.5119 C   0  0  0  0  0  0  0  0  0  0  0  0
   10.7516   15.0093   21.7287 N   0  0  0  0  0  0  0  0  0  0  0  0
    9.6390   14.3025   22.0693 C   0  0  0  0  0  0  0  0  0  0  0  0
    8.5243   14.7275   21.7991 O   0  0  0  0  0  0  0  0  0  0  0  0
    9.9652   13.1819   22.8050 N   0  0  0  0  0  0  0  0  0  0  0  0
    9.0601   12.3450   23.5281 C   0  0  0  0  0  0  0  0  0  0  0  0
    7.9237   12.8958   24.1107 C   0  0  0  0  0  0  0  0  0  0  0  0
    7.1006   12.1406   24.9565 C   0  0  0  0  0  0  0  0  0  0  0  0
    7.3226   10.7865   25.1988 C   0  0  0  0  0  0  0  0  0  0  0  0
    6.5807   10.0404   26.0941 N   0  0  0  0  0  0  0  0  0  0  0  0
    5.4824   10.5442   26.8980 C   0  0  0  0  0  0  0  0  0  0  0  0
    5.9929   10.9274   28.2679 C   0  0  0  0  0  0  0  0  0  0  0  0
    6.0431    9.9737   29.2905 C   0  0  0  0  0  0  0  0  0  0  0  0
    6.6400   10.2793   30.5149 C   0  0  0  0  0  0  0  0  0  0  0  0
    7.2079   11.5457   30.7453 C   0  0  0  0  0  0  0  0  0  0  0  0
    7.9335   11.8187   32.0346 C   0  0  0  0  0  0  0  0  0  0  0  0
    7.8971   10.7589   32.8946 F   0  0  0  0  0  0  0  0  0  0  0  0
    7.4282   12.8699   32.7314 F   0  0  0  0  0  0  0  0  0  0  0  0
    9.2577   12.0745   31.8419 F   0  0  0  0  0  0  0  0  0  0  0  0
    7.1202   12.5113   29.7366 C   0  0  0  0  0  0  0  0  0  0  0  0
    7.8008   14.0881   29.9150 Cl  0  0  0  0  0  0  0  0  0  0  0  0
    6.5118   12.2068   28.5139 C   0  0  0  0  0  0  0  0  0  0  0  0
    8.4185   10.2132   24.5466 C   0  0  0  0  0  0  0  0  0  0  0  0
    9.2904   10.9813   23.7451 C   0  0  0  0  0  0  0  0  0  0  0  0
   11.2711   13.3154   23.1732 C   0  0  0  0  0  0  0  0  0  0  0  0
   11.9205   12.7167   24.0040 O   0  0  0  0  0  0  0  0  0  0  0  0
  1  2  2  0
  2  3  1  0
  3  4  1  0
  4  5  2  0
  4  6  1  0
  6  7  1  0
  7  8  2  0
  8  9  1  0
  9 10  2  0
 10 11  1  0
 11 12  1  0
 12 13  1  0
 13 14  2  0
 14 15  1  0
 15 16  2  0
 16 17  1  0
 17 18  1  0
 17 19  1  0
 17 20  1  0
 16 21  1  0
 21 22  1  0
 21 23  2  0
 10 24  1  0
 24 25  2  0
  6 26  1  0
 26 27  2  0
 26  2  1  0
 25  7  1  0
 23 13  1  0
M  END
>  <distance_score>  (41) 
1.580725

>  <ref_pdb>  (41) 
A0310a

>  <ref_mols>  (41) 
A0528a,A0365a

>  <alias>  (41) 
None

>  <original SMILES>  (41) 
O=C1NC(=O)N(c2ccc(NCc3ccc(C(F)(F)F)c(Cl)c3)cc2)C1=O

>  <inchikey>  (41) 
DGUVEBGRBAAIFG-UHFFFAOYSA-N

>  <exports>  (41) 
['/opt/xchem-fragalysis-2/maxwin/2A_HIPPO/hippo/A71EV2A_10_recipes/Recipe_1LPVPY0_poses.sdf']

>  <original ID>  (41) 
DGUVEBGRBAAIFG-UHFFFAOYSA-N

>  <energy_score>  (41) 
-23.488381

>  <tags>  (41) 
[]

>  <HIPPO ID>  (41) 
36905

>  <name>  (41) 
DGUVEBGRBAAIFG-UHFFFAOYSA-N

$$$$
JIJOMFDCBOAKLL-QGZVFWFLSA-N
     RDKit          3D

 30 32  0  0  0  0  0  0  0  0999 V2000
    4.0897    7.2583   25.4392 O   0  0  0  0  0  0  0  0  0  0  0  0
    4.5934    8.0933   26.2073 C   0  0  0  0  0  0  0  0  0  0  0  0
    4.2664    8.1051   27.6860 C   0  0  0  0  0  0  0  0  0  0  0  0
    3.7960    6.8150   28.0572 O   0  0  0  0  0  0  0  0  0  0  0  0
    5.5637    8.8384   25.6323 N   0  0  0  0  0  0  0  0  0  0  0  0
    6.5156    9.7693   25.9797 C   0  0  0  0  0  0  0  0  0  0  0  0
    7.6684    9.8812   25.1768 C   0  0  0  0  0  0  0  0  0  0  0  0
    8.5245   10.9137   25.2300 N   0  0  0  0  0  0  0  0  0  0  0  0
    8.1627   11.9140   26.0415 C   0  0  0  0  0  0  0  0  0  0  0  0
    7.0275   11.8731   26.8587 C   0  0  0  0  0  0  0  0  0  0  0  0
    6.5379   13.0607   27.6031 C   0  0  0  0  0  0  0  0  0  0  0  0
    6.6456   14.3064   26.7906 C   0  0  0  0  0  0  0  0  0  0  0  0
    7.6493   15.0109   26.9711 O   0  0  0  0  0  0  0  0  0  0  0  0
    5.6468   14.6552   25.9001 N   0  0  0  0  0  0  0  0  0  0  0  0
    5.8487   15.9295   25.3139 C   0  0  0  0  0  0  0  0  0  0  0  0
    6.6427   15.7457   24.0388 C   0  0  0  0  0  0  0  0  0  0  0  0
    6.0923   14.7956   23.1314 N   0  0  0  0  0  0  0  0  0  0  0  0
    6.8524   14.2457   22.1265 C   0  0  0  0  0  0  0  0  0  0  0  0
    6.4144   13.2567   21.5373 O   0  0  0  0  0  0  0  0  0  0  0  0
    8.2781   14.7374   21.8329 C   0  0  0  0  0  0  0  0  0  0  0  0
    8.3560   16.4068   21.2615 Cl  0  0  0  0  0  0  0  0  0  0  0  0
    4.7663   14.3207   23.5200 C   0  0  0  0  0  0  0  0  0  0  0  0
    4.7196   13.8477   25.0587 C   0  0  2  0  0  0  0  0  0  0  0  0
    3.3283   13.9839   25.6481 C   0  0  0  0  0  0  0  0  0  0  0  0
    2.4727   15.0765   25.4353 C   0  0  0  0  0  0  0  0  0  0  0  0
    1.2267   15.1287   26.0526 C   0  0  0  0  0  0  0  0  0  0  0  0
    0.8699   14.0825   26.8813 C   0  0  0  0  0  0  0  0  0  0  0  0
    1.6729   13.0281   27.1380 N   0  0  0  0  0  0  0  0  0  0  0  0
    2.8766   13.0172   26.5300 C   0  0  0  0  0  0  0  0  0  0  0  0
    6.2471   10.7293   26.9070 C   0  0  0  0  0  0  0  0  0  0  0  0
  1  2  2  0
  2  3  1  0
  3  4  1  0
  2  5  1  0
  5  6  1  0
  6  7  2  0
  7  8  1  0
  8  9  2  0
  9 10  1  0
 10 11  1  0
 11 12  1  0
 12 13  2  0
 12 14  1  0
 14 15  1  0
 15 16  1  0
 16 17  1  0
 17 18  1  0
 18 19  2  0
 18 20  1  0
 20 21  1  0
 17 22  1  0
 22 23  1  0
 23 24  1  1
 24 25  2  0
 25 26  1  0
 26 27  2  0
 27 28  1  0
 28 29  2  0
 10 30  2  0
 30  6  1  0
 23 14  1  0
 29 24  1  0
M  END
>  <distance_score>  (42) 
1.34527

>  <ref_pdb>  (42) 
A1346a

>  <ref_mols>  (42) 
A1346a

>  <alias>  (42) 
None

>  <original SMILES>  (42) 
O=C(CO)Nc1cncc(CC(=O)N2CCN(C(=O)CCl)C[C@@H]2c2cccnc2)c1

>  <inchikey>  (42) 
JIJOMFDCBOAKLL-QGZVFWFLSA-N

>  <exports>  (42) 
['/opt/xchem-fragalysis-2/maxwin/2A_HIPPO/hippo/A71EV2A_10_recipes/Recipe_1LPUPHX_poses.sdf', '/opt/xchem-fragalysis-2/maxwin/2A_HIPPO/hippo/A71EV2A_10_recipes/Recipe_1LPVPY0_poses.sdf']

>  <original ID>  (42) 
JIJOMFDCBOAKLL-QGZVFWFLSA-N

>  <energy_score>  (42) 
-16.772953

>  <tags>  (42) 
[]

>  <HIPPO ID>  (42) 
41081

>  <name>  (42) 
JIJOMFDCBOAKLL-QGZVFWFLSA-N

$$$$
JIJOMFDCBOAKLL-KRWDZBQOSA-N
     RDKit          3D

 30 32  0  0  0  0  0  0  0  0999 V2000
    4.5434    9.2149   28.4941 O   0  0  0  0  0  0  0  0  0  0  0  0
    4.5411    8.6577   27.4020 C   0  0  0  0  0  0  0  0  0  0  0  0
    3.6786    7.3957   27.1281 C   0  0  0  0  0  0  0  0  0  0  0  0
    3.7815    6.8968   25.7899 O   0  0  0  0  0  0  0  0  0  0  0  0
    5.2814    9.0305   26.2896 N   0  0  0  0  0  0  0  0  0  0  0  0
    6.3282    9.9497   26.2567 C   0  0  0  0  0  0  0  0  0  0  0  0
    7.4065    9.8045   25.3765 C   0  0  0  0  0  0  0  0  0  0  0  0
    8.4488   10.6541   25.3071 N   0  0  0  0  0  0  0  0  0  0  0  0
    8.3943   11.7091   26.1327 C   0  0  0  0  0  0  0  0  0  0  0  0
    7.3497   11.9694   27.0187 C   0  0  0  0  0  0  0  0  0  0  0  0
    7.2235   13.2330   27.8274 C   0  0  0  0  0  0  0  0  0  0  0  0
    6.2879   14.2736   27.2019 C   0  0  0  0  0  0  0  0  0  0  0  0
    5.7153   15.1119   27.8864 O   0  0  0  0  0  0  0  0  0  0  0  0
    6.2684   14.2795   25.8154 N   0  0  0  0  0  0  0  0  0  0  0  0
    7.5743   14.6342   25.3402 C   0  0  0  0  0  0  0  0  0  0  0  0
    7.7942   14.2196   23.9216 C   0  0  0  0  0  0  0  0  0  0  0  0
    6.8533   14.8994   23.0663 N   0  0  0  0  0  0  0  0  0  0  0  0
    7.1062   14.5842   21.7434 C   0  0  0  0  0  0  0  0  0  0  0  0
    6.3610   13.7832   21.1842 O   0  0  0  0  0  0  0  0  0  0  0  0
    8.4196   15.0625   21.1315 C   0  0  0  0  0  0  0  0  0  0  0  0
    8.5612   16.8183   21.2394 Cl  0  0  0  0  0  0  0  0  0  0  0  0
    5.4407   14.7884   23.5196 C   0  0  0  0  0  0  0  0  0  0  0  0
    5.2419   15.0371   25.0492 C   0  0  1  0  0  0  0  0  0  0  0  0
    3.8126   14.8051   25.4736 C   0  0  0  0  0  0  0  0  0  0  0  0
    2.9311   15.8859   25.6105 C   0  0  0  0  0  0  0  0  0  0  0  0
    1.6242   15.6718   26.0371 C   0  0  0  0  0  0  0  0  0  0  0  0
    1.2341   14.3737   26.3153 C   0  0  0  0  0  0  0  0  0  0  0  0
    2.0437   13.3017   26.1756 N   0  0  0  0  0  0  0  0  0  0  0  0
    3.3111   13.5448   25.7589 C   0  0  0  0  0  0  0  0  0  0  0  0
    6.3147   11.0502   27.0842 C   0  0  0  0  0  0  0  0  0  0  0  0
  1  2  2  0
  2  3  1  0
  3  4  1  0
  2  5  1  0
  5  6  1  0
  6  7  2  0
  7  8  1  0
  8  9  2  0
  9 10  1  0
 10 11  1  0
 11 12  1  0
 12 13  2  0
 12 14  1  0
 14 15  1  0
 15 16  1  0
 16 17  1  0
 17 18  1  0
 18 19  2  0
 18 20  1  0
 20 21  1  0
 17 22  1  0
 22 23  1  0
 23 24  1  1
 24 25  2  0
 25 26  1  0
 26 27  2  0
 27 28  1  0
 28 29  2  0
 10 30  2  0
 30  6  1  0
 23 14  1  0
 29 24  1  0
M  END
>  <distance_score>  (43) 
1.320562

>  <ref_pdb>  (43) 
A1346a

>  <ref_mols>  (43) 
A1346a

>  <alias>  (43) 
None

>  <original SMILES>  (43) 
O=C(CO)Nc1cncc(CC(=O)N2CCN(C(=O)CCl)C[C@H]2c2cccnc2)c1

>  <inchikey>  (43) 
JIJOMFDCBOAKLL-KRWDZBQOSA-N

>  <exports>  (43) 
['/opt/xchem-fragalysis-2/maxwin/2A_HIPPO/hippo/A71EV2A_10_recipes/Recipe_1LPUPHX_poses.sdf', '/opt/xchem-fragalysis-2/maxwin/2A_HIPPO/hippo/A71EV2A_10_recipes/Recipe_1LPVPY0_poses.sdf']

>  <original ID>  (43) 
JIJOMFDCBOAKLL-KRWDZBQOSA-N

>  <energy_score>  (43) 
-29.584025

>  <tags>  (43) 
[]

>  <HIPPO ID>  (43) 
41082

>  <name>  (43) 
JIJOMFDCBOAKLL-KRWDZBQOSA-N

$$$$
VTVLOEJAUYGHPF-GOSISDBHSA-N
     RDKit          3D

 30 32  0  0  0  0  0  0  0  0999 V2000
    2.8084    6.5140   27.4535 C   0  0  0  0  0  0  0  0  0  0  0  0
    3.5964    7.3126   27.0293 C   0  0  0  0  0  0  0  0  0  0  0  0
    4.5705    8.1358   26.3550 C   0  0  0  0  0  0  0  0  0  0  0  0
    4.8312    7.7939   25.2165 O   0  0  0  0  0  0  0  0  0  0  0  0
    5.0993    9.2209   27.0135 N   0  0  0  0  0  0  0  0  0  0  0  0
    6.2476    9.9553   26.6445 C   0  0  0  0  0  0  0  0  0  0  0  0
    7.2542    9.5608   25.7576 C   0  0  0  0  0  0  0  0  0  0  0  0
    8.4151   10.2230   25.5336 N   0  0  0  0  0  0  0  0  0  0  0  0
    8.5429   11.4067   26.1309 C   0  0  0  0  0  0  0  0  0  0  0  0
    7.5363   11.9584   26.9155 C   0  0  0  0  0  0  0  0  0  0  0  0
    7.5248   13.4231   27.1830 C   0  0  0  0  0  0  0  0  0  0  0  0
    6.5055   14.2222   26.3744 C   0  0  0  0  0  0  0  0  0  0  0  0
    6.2533   15.3582   26.7814 O   0  0  0  0  0  0  0  0  0  0  0  0
    5.9489   13.6930   25.1958 N   0  0  0  0  0  0  0  0  0  0  0  0
    6.8194   13.0276   24.2412 C   0  0  0  0  0  0  0  0  0  0  0  0
    7.8772   14.0122   23.8011 C   0  0  0  0  0  0  0  0  0  0  0  0
    7.2060   15.0844   23.0760 N   0  0  0  0  0  0  0  0  0  0  0  0
    7.2423   14.8038   21.7230 C   0  0  0  0  0  0  0  0  0  0  0  0
    6.4469   13.9973   21.2477 O   0  0  0  0  0  0  0  0  0  0  0  0
    8.5123   15.2820   21.0363 C   0  0  0  0  0  0  0  0  0  0  0  0
    8.5510   17.0458   21.0461 Cl  0  0  0  0  0  0  0  0  0  0  0  0
    5.9332   15.6201   23.6852 C   0  0  0  0  0  0  0  0  0  0  0  0
    5.0472   14.5682   24.4206 C   0  0  2  0  0  0  0  0  0  0  0  0
    3.7815   14.9095   25.1748 C   0  0  0  0  0  0  0  0  0  0  0  0
    3.0472   13.8741   25.7805 C   0  0  0  0  0  0  0  0  0  0  0  0
    1.8277   14.1284   26.3970 C   0  0  0  0  0  0  0  0  0  0  0  0
    1.3591   15.4269   26.3783 C   0  0  0  0  0  0  0  0  0  0  0  0
    2.0223   16.4529   25.8045 N   0  0  0  0  0  0  0  0  0  0  0  0
    3.2269   16.1753   25.2403 C   0  0  0  0  0  0  0  0  0  0  0  0
    6.4213   11.1850   27.2463 C   0  0  0  0  0  0  0  0  0  0  0  0
  1  2  3  0
  2  3  1  0
  3  4  2  0
  3  5  1  0
  5  6  1  0
  6  7  2  0
  7  8  1  0
  8  9  2  0
  9 10  1  0
 10 11  1  0
 11 12  1  0
 12 13  2  0
 12 14  1  0
 14 15  1  0
 15 16  1  0
 16 17  1  0
 17 18  1  0
 18 19  2  0
 18 20  1  0
 20 21  1  0
 17 22  1  0
 22 23  1  0
 23 24  1  1
 24 25  2  0
 25 26  1  0
 26 27  2  0
 27 28  1  0
 28 29  2  0
 10 30  2  0
 30  6  1  0
 23 14  1  0
 29 24  1  0
M  END
>  <distance_score>  (44) 
1.285371

>  <ref_pdb>  (44) 
A1346a

>  <ref_mols>  (44) 
A1346a

>  <alias>  (44) 
None

>  <original SMILES>  (44) 
C#CC(=O)Nc1cncc(CC(=O)N2CCN(C(=O)CCl)C[C@@H]2c2cccnc2)c1

>  <inchikey>  (44) 
VTVLOEJAUYGHPF-GOSISDBHSA-N

>  <exports>  (44) 
['/opt/xchem-fragalysis-2/maxwin/2A_HIPPO/hippo/A71EV2A_10_recipes/Recipe_1LPVPY0_poses.sdf']

>  <original ID>  (44) 
VTVLOEJAUYGHPF-GOSISDBHSA-N

>  <energy_score>  (44) 
8.751582

>  <tags>  (44) 
[]

>  <HIPPO ID>  (44) 
41095

>  <name>  (44) 
VTVLOEJAUYGHPF-GOSISDBHSA-N

$$$$
VTVLOEJAUYGHPF-SFHVURJKSA-N
     RDKit          3D

 30 32  0  0  0  0  0  0  0  0999 V2000
    3.0676    6.5721   27.1389 C   0  0  0  0  0  0  0  0  0  0  0  0
    3.7240    7.5646   27.3070 C   0  0  0  0  0  0  0  0  0  0  0  0
    4.5638    8.7442   27.4721 C   0  0  0  0  0  0  0  0  0  0  0  0
    4.5407    9.3373   28.5383 O   0  0  0  0  0  0  0  0  0  0  0  0
    5.3069    9.0598   26.3538 N   0  0  0  0  0  0  0  0  0  0  0  0
    6.3551    9.9762   26.2915 C   0  0  0  0  0  0  0  0  0  0  0  0
    7.4206    9.8108   25.3988 C   0  0  0  0  0  0  0  0  0  0  0  0
    8.4698   10.6475   25.3105 N   0  0  0  0  0  0  0  0  0  0  0  0
    8.4387   11.7077   26.1303 C   0  0  0  0  0  0  0  0  0  0  0  0
    7.4056   11.9881   27.0239 C   0  0  0  0  0  0  0  0  0  0  0  0
    7.2910   13.2609   27.8206 C   0  0  0  0  0  0  0  0  0  0  0  0
    6.3350   14.2834   27.1960 C   0  0  0  0  0  0  0  0  0  0  0  0
    5.7623   15.1217   27.8797 O   0  0  0  0  0  0  0  0  0  0  0  0
    6.2932   14.2664   25.8093 N   0  0  0  0  0  0  0  0  0  0  0  0
    7.5985   14.5876   25.3073 C   0  0  0  0  0  0  0  0  0  0  0  0
    7.7907   14.1659   23.8891 C   0  0  0  0  0  0  0  0  0  0  0  0
    6.8589   14.8805   23.0541 N   0  0  0  0  0  0  0  0  0  0  0  0
    7.0976   14.5786   21.7273 C   0  0  0  0  0  0  0  0  0  0  0  0
    6.3459   13.7808   21.1729 O   0  0  0  0  0  0  0  0  0  0  0  0
    8.4097   15.0558   21.1108 C   0  0  0  0  0  0  0  0  0  0  0  0
    8.5705   16.8078   21.2473 Cl  0  0  0  0  0  0  0  0  0  0  0  0
    5.4481   14.7893   23.5192 C   0  0  0  0  0  0  0  0  0  0  0  0
    5.2668   15.0355   25.0527 C   0  0  1  0  0  0  0  0  0  0  0  0
    3.8334   14.8274   25.4807 C   0  0  0  0  0  0  0  0  0  0  0  0
    3.3146   13.6026   25.8973 C   0  0  0  0  0  0  0  0  0  0  0  0
    1.9850   13.5202   26.3082 C   0  0  0  0  0  0  0  0  0  0  0  0
    1.1999   14.6596   26.2477 C   0  0  0  0  0  0  0  0  0  0  0  0
    1.6487   15.8540   25.8132 N   0  0  0  0  0  0  0  0  0  0  0  0
    2.9568   15.9140   25.4682 C   0  0  0  0  0  0  0  0  0  0  0  0
    6.3607   11.0844   27.1064 C   0  0  0  0  0  0  0  0  0  0  0  0
  1  2  3  0
  2  3  1  0
  3  4  2  0
  3  5  1  0
  5  6  1  0
  6  7  2  0
  7  8  1  0
  8  9  2  0
  9 10  1  0
 10 11  1  0
 11 12  1  0
 12 13  2  0
 12 14  1  0
 14 15  1  0
 15 16  1  0
 16 17  1  0
 17 18  1  0
 18 19  2  0
 18 20  1  0
 20 21  1  0
 17 22  1  0
 22 23  1  0
 23 24  1  1
 24 25  2  0
 25 26  1  0
 26 27  2  0
 27 28  1  0
 28 29  2  0
 10 30  2  0
 30  6  1  0
 23 14  1  0
 29 24  1  0
M  END
>  <distance_score>  (45) 
1.285105

>  <ref_pdb>  (45) 
A1346a

>  <ref_mols>  (45) 
A1346a

>  <alias>  (45) 
None

>  <original SMILES>  (45) 
C#CC(=O)Nc1cncc(CC(=O)N2CCN(C(=O)CCl)C[C@H]2c2cccnc2)c1

>  <inchikey>  (45) 
VTVLOEJAUYGHPF-SFHVURJKSA-N

>  <exports>  (45) 
['/opt/xchem-fragalysis-2/maxwin/2A_HIPPO/hippo/A71EV2A_10_recipes/Recipe_1LPVPY0_poses.sdf']

>  <original ID>  (45) 
VTVLOEJAUYGHPF-SFHVURJKSA-N

>  <energy_score>  (45) 
-80.195138

>  <tags>  (45) 
[]

>  <HIPPO ID>  (45) 
41096

>  <name>  (45) 
VTVLOEJAUYGHPF-SFHVURJKSA-N

$$$$
HCOXXFALBBSKKJ-SFHVURJKSA-N
     RDKit          3D

 30 32  0  0  0  0  0  0  0  0999 V2000
    3.5231    7.2686   27.6798 C   0  0  0  0  0  0  0  0  0  0  0  0
    4.1698    8.2765   27.5509 C   0  0  0  0  0  0  0  0  0  0  0  0
    4.9528    9.4855   27.2721 C   0  0  0  0  0  0  0  0  0  0  0  0
    4.5428   10.5498   27.7029 O   0  0  0  0  0  0  0  0  0  0  0  0
    6.0443    9.2818   26.4753 N   0  0  0  0  0  0  0  0  0  0  0  0
    6.9598   10.1683   25.8946 C   0  0  0  0  0  0  0  0  0  0  0  0
    7.9802    9.6473   25.0878 C   0  0  0  0  0  0  0  0  0  0  0  0
    8.9081   10.3722   24.4388 N   0  0  0  0  0  0  0  0  0  0  0  0
    8.8317   11.6984   24.5882 C   0  0  0  0  0  0  0  0  0  0  0  0
    7.8792   12.3344   25.3814 C   0  0  0  0  0  0  0  0  0  0  0  0
    7.9591   13.8309   25.4583 C   0  0  0  0  0  0  0  0  0  0  0  0
    6.9870   14.5017   26.3903 C   0  0  0  0  0  0  0  0  0  0  0  0
    7.3381   14.7720   27.5400 O   0  0  0  0  0  0  0  0  0  0  0  0
    5.7144   14.7478   25.9337 N   0  0  0  0  0  0  0  0  0  0  0  0
    5.2841   14.7202   24.5311 C   0  0  0  0  0  0  0  0  0  0  0  0
    3.9103   15.3893   24.3244 C   0  0  0  0  0  0  0  0  0  0  0  0
    2.8401   14.8909   25.2014 N   0  0  0  0  0  0  0  0  0  0  0  0
    1.7239   15.7355   25.3404 C   0  0  0  0  0  0  0  0  0  0  0  0
    1.7798   16.9608   25.2666 O   0  0  0  0  0  0  0  0  0  0  0  0
    0.4029   14.9961   25.4032 C   0  0  0  0  0  0  0  0  0  0  0  0
   -0.7294   15.7557   26.5208 Cl  0  0  0  0  0  0  0  0  0  0  0  0
    3.3747   14.2067   26.4001 C   0  0  2  0  0  0  0  0  0  0  0  0
    2.3793   13.8636   27.4659 C   0  0  0  0  0  0  0  0  0  0  0  0
    1.8641   12.5673   27.5425 C   0  0  0  0  0  0  0  0  0  0  0  0
    0.8339   12.2640   28.4174 C   0  0  0  0  0  0  0  0  0  0  0  0
    0.3605   13.2737   29.2256 C   0  0  0  0  0  0  0  0  0  0  0  0
    0.8688   14.5226   29.2312 N   0  0  0  0  0  0  0  0  0  0  0  0
    1.8644   14.7937   28.3565 C   0  0  0  0  0  0  0  0  0  0  0  0
    4.6423   14.9246   26.9143 C   0  0  0  0  0  0  0  0  0  0  0  0
    6.9234   11.5439   26.0411 C   0  0  0  0  0  0  0  0  0  0  0  0
  1  2  3  0
  2  3  1  0
  3  4  2  0
  3  5  1  0
  5  6  1  0
  6  7  2  0
  7  8  1  0
  8  9  2  0
  9 10  1  0
 10 11  1  0
 11 12  1  0
 12 13  2  0
 12 14  1  0
 14 15  1  0
 15 16  1  0
 16 17  1  0
 17 18  1  0
 18 19  2  0
 18 20  1  0
 20 21  1  0
 17 22  1  0
 22 23  1  1
 23 24  2  0
 24 25  1  0
 25 26  2  0
 26 27  1  0
 27 28  2  0
 22 29  1  0
 10 30  2  0
 30  6  1  0
 29 14  1  0
 28 23  1  0
M  END
>  <distance_score>  (46) 
1.701692

>  <ref_pdb>  (46) 
A1346a

>  <ref_mols>  (46) 
A1346a

>  <alias>  (46) 
None

>  <original SMILES>  (46) 
C#CC(=O)Nc1cncc(CC(=O)N2CCN(C(=O)CCl)[C@H](c3cccnc3)C2)c1

>  <inchikey>  (46) 
HCOXXFALBBSKKJ-SFHVURJKSA-N

>  <exports>  (46) 
['/opt/xchem-fragalysis-2/maxwin/2A_HIPPO/hippo/A71EV2A_10_recipes/Recipe_1LPVPY0_poses.sdf']

>  <original ID>  (46) 
HCOXXFALBBSKKJ-SFHVURJKSA-N

>  <energy_score>  (46) 
-71.111531

>  <tags>  (46) 
[]

>  <HIPPO ID>  (46) 
41195

>  <name>  (46) 
HCOXXFALBBSKKJ-SFHVURJKSA-N

$$$$
HCOXXFALBBSKKJ-SFHVURJKSA-N
     RDKit          3D

 30 32  0  0  0  0  0  0  0  0999 V2000
    9.4007    8.5871   20.9670 C   0  0  0  0  0  0  0  0  0  0  0  0
    9.6822    8.8649   22.0814 C   0  0  0  0  0  0  0  0  0  0  0  0
    9.8210    8.9840   23.4560 C   0  0  0  0  0  0  0  0  0  0  0  0
    9.8117    7.9621   24.0984 O   0  0  0  0  0  0  0  0  0  0  0  0
    9.7737   10.2827   23.8226 N   0  0  0  0  0  0  0  0  0  0  0  0
    8.8125   10.7216   24.7218 C   0  0  0  0  0  0  0  0  0  0  0  0
    7.9860    9.9117   25.4819 C   0  0  0  0  0  0  0  0  0  0  0  0
    7.0175   10.3797   26.2990 N   0  0  0  0  0  0  0  0  0  0  0  0
    6.8494   11.7161   26.3249 C   0  0  0  0  0  0  0  0  0  0  0  0
    7.5893   12.5962   25.5502 C   0  0  0  0  0  0  0  0  0  0  0  0
    7.3124   14.0460   25.3734 C   0  0  0  0  0  0  0  0  0  0  0  0
    6.6259   14.7649   26.4875 C   0  0  0  0  0  0  0  0  0  0  0  0
    7.2933   15.2077   27.4229 O   0  0  0  0  0  0  0  0  0  0  0  0
    5.2648   14.9446   26.3773 N   0  0  0  0  0  0  0  0  0  0  0  0
    4.6165   15.9054   27.2628 C   0  0  0  0  0  0  0  0  0  0  0  0
    3.4317   16.6351   26.6070 C   0  0  0  0  0  0  0  0  0  0  0  0
    2.4886   15.7731   25.9019 N   0  0  0  0  0  0  0  0  0  0  0  0
    1.2734   16.3214   25.5311 C   0  0  0  0  0  0  0  0  0  0  0  0
    1.0768   17.5376   25.5789 O   0  0  0  0  0  0  0  0  0  0  0  0
    0.1574   15.3937   25.1069 C   0  0  0  0  0  0  0  0  0  0  0  0
   -1.1343   15.4337   26.3187 Cl  0  0  0  0  0  0  0  0  0  0  0  0
    2.9000   14.3764   25.7335 C   0  0  2  0  0  0  0  0  0  0  0  0
    2.4761   13.5515   26.9403 C   0  0  0  0  0  0  0  0  0  0  0  0
    2.9731   12.2774   27.1797 C   0  0  0  0  0  0  0  0  0  0  0  0
    2.4548   11.4978   28.2132 C   0  0  0  0  0  0  0  0  0  0  0  0
    1.4433   12.0164   28.9974 C   0  0  0  0  0  0  0  0  0  0  0  0
    0.9726   13.2601   28.8480 N   0  0  0  0  0  0  0  0  0  0  0  0
    1.5113   13.9952   27.8511 C   0  0  0  0  0  0  0  0  0  0  0  0
    4.4076   14.3309   25.3618 C   0  0  0  0  0  0  0  0  0  0  0  0
    8.6035   12.0789   24.7573 C   0  0  0  0  0  0  0  0  0  0  0  0
  1  2  3  0
  2  3  1  0
  3  4  2  0
  3  5  1  0
  5  6  1  0
  6  7  2  0
  7  8  1  0
  8  9  2  0
  9 10  1  0
 10 11  1  0
 11 12  1  0
 12 13  2  0
 12 14  1  0
 14 15  1  0
 15 16  1  0
 16 17  1  0
 17 18  1  0
 18 19  2  0
 18 20  1  0
 20 21  1  0
 17 22  1  0
 22 23  1  1
 23 24  2  0
 24 25  1  0
 25 26  2  0
 26 27  1  0
 27 28  2  0
 22 29  1  0
 10 30  2  0
 30  6  1  0
 29 14  1  0
 28 23  1  0
M  END
>  <distance_score>  (47) 
1.493578

>  <ref_pdb>  (47) 
A1346a

>  <ref_mols>  (47) 
A1346a

>  <alias>  (47) 
None

>  <original SMILES>  (47) 
C#CC(=O)Nc1cncc(CC(=O)N2CCN(C(=O)CCl)[C@H](c3cccnc3)C2)c1

>  <inchikey>  (47) 
HCOXXFALBBSKKJ-SFHVURJKSA-N

>  <exports>  (47) 
['/opt/xchem-fragalysis-2/maxwin/2A_HIPPO/hippo/A71EV2A_10_recipes/Recipe_1LPVPY0_poses.sdf']

>  <original ID>  (47) 
HCOXXFALBBSKKJ-SFHVURJKSA-N

>  <energy_score>  (47) 
-146.971806

>  <tags>  (47) 
[]

>  <HIPPO ID>  (47) 
41196

>  <name>  (47) 
HCOXXFALBBSKKJ-SFHVURJKSA-N

$$$$
GLAVLZCLANXGGX-KRWDZBQOSA-N
     RDKit          3D

 30 32  0  0  0  0  0  0  0  0999 V2000
    8.4718    8.2722   22.5445 O   0  0  0  0  0  0  0  0  0  0  0  0
    9.3730    8.9743   22.9742 C   0  0  0  0  0  0  0  0  0  0  0  0
   10.6643    8.3305   23.3093 C   0  0  0  0  0  0  0  0  0  0  0  0
   11.4210    9.0195   24.2503 O   0  0  0  0  0  0  0  0  0  0  0  0
    9.2534   10.2905   23.3745 N   0  0  0  0  0  0  0  0  0  0  0  0
    8.4324   10.6023   24.4773 C   0  0  0  0  0  0  0  0  0  0  0  0
    7.6817    9.6258   25.1126 C   0  0  0  0  0  0  0  0  0  0  0  0
    6.8662    9.8064   26.1693 N   0  0  0  0  0  0  0  0  0  0  0  0
    6.8390   11.0394   26.6757 C   0  0  0  0  0  0  0  0  0  0  0  0
    7.5983   12.0913   26.1769 C   0  0  0  0  0  0  0  0  0  0  0  0
    7.5701   13.3884   26.9178 C   0  0  0  0  0  0  0  0  0  0  0  0
    6.7777   14.4858   26.2687 C   0  0  0  0  0  0  0  0  0  0  0  0
    7.3339   15.3524   25.6093 O   0  0  0  0  0  0  0  0  0  0  0  0
    5.4260   14.5238   26.5718 N   0  0  0  0  0  0  0  0  0  0  0  0
    4.9114   15.8561   26.9348 C   0  0  0  0  0  0  0  0  0  0  0  0
    3.8759   16.4151   25.9452 C   0  0  0  0  0  0  0  0  0  0  0  0
    2.7426   15.5190   25.7469 N   0  0  0  0  0  0  0  0  0  0  0  0
    1.5018   16.0703   25.4539 C   0  0  0  0  0  0  0  0  0  0  0  0
    1.3384   17.2884   25.3531 O   0  0  0  0  0  0  0  0  0  0  0  0
    0.3198   15.1409   25.2750 C   0  0  0  0  0  0  0  0  0  0  0  0
   -0.9232   15.5019   26.4837 Cl  0  0  0  0  0  0  0  0  0  0  0  0
    3.0601   14.0847   25.8409 C   0  0  2  0  0  0  0  0  0  0  0  0
    2.5341   13.4873   27.1380 C   0  0  0  0  0  0  0  0  0  0  0  0
    2.7377   12.1460   27.4440 C   0  0  0  0  0  0  0  0  0  0  0  0
    2.0481   11.5446   28.4920 C   0  0  0  0  0  0  0  0  0  0  0  0
    1.1873   12.3182   29.2435 C   0  0  0  0  0  0  0  0  0  0  0  0
    1.0404   13.6377   29.0573 N   0  0  0  0  0  0  0  0  0  0  0  0
    1.7310   14.1914   28.0359 C   0  0  0  0  0  0  0  0  0  0  0  0
    4.5746   13.8263   25.6078 C   0  0  0  0  0  0  0  0  0  0  0  0
    8.3939   11.8720   25.0367 C   0  0  0  0  0  0  0  0  0  0  0  0
  1  2  2  0
  2  3  1  0
  3  4  1  0
  2  5  1  0
  5  6  1  0
  6  7  2  0
  7  8  1  0
  8  9  2  0
  9 10  1  0
 10 11  1  0
 11 12  1  0
 12 13  2  0
 12 14  1  0
 14 15  1  0
 15 16  1  0
 16 17  1  0
 17 18  1  0
 18 19  2  0
 18 20  1  0
 20 21  1  0
 17 22  1  0
 22 23  1  1
 23 24  2  0
 24 25  1  0
 25 26  2  0
 26 27  1  0
 27 28  2  0
 22 29  1  0
 10 30  2  0
 30  6  1  0
 29 14  1  0
 28 23  1  0
M  END
>  <distance_score>  (48) 
1.452724

>  <ref_pdb>  (48) 
A1346a

>  <ref_mols>  (48) 
A1346a

>  <alias>  (48) 
None

>  <original SMILES>  (48) 
O=C(CO)Nc1cncc(CC(=O)N2CCN(C(=O)CCl)[C@H](c3cccnc3)C2)c1

>  <inchikey>  (48) 
GLAVLZCLANXGGX-KRWDZBQOSA-N

>  <exports>  (48) 
['/opt/xchem-fragalysis-2/maxwin/2A_HIPPO/hippo/A71EV2A_10_recipes/Recipe_1LPUPHX_poses.sdf', '/opt/xchem-fragalysis-2/maxwin/2A_HIPPO/hippo/A71EV2A_10_recipes/Recipe_1LPVPY0_poses.sdf']

>  <original ID>  (48) 
GLAVLZCLANXGGX-KRWDZBQOSA-N

>  <energy_score>  (48) 
-5.844929

>  <tags>  (48) 
[]

>  <HIPPO ID>  (48) 
41197

>  <name>  (48) 
GLAVLZCLANXGGX-KRWDZBQOSA-N

$$$$
GLAVLZCLANXGGX-QGZVFWFLSA-N
     RDKit          3D

 30 32  0  0  0  0  0  0  0  0999 V2000
    4.6669    7.6368   25.1650 O   0  0  0  0  0  0  0  0  0  0  0  0
    4.5180    8.0344   26.3099 C   0  0  0  0  0  0  0  0  0  0  0  0
    3.6174    7.2638   27.2699 C   0  0  0  0  0  0  0  0  0  0  0  0
    4.1822    7.3456   28.5731 O   0  0  0  0  0  0  0  0  0  0  0  0
    5.1205    9.1317   26.9038 N   0  0  0  0  0  0  0  0  0  0  0  0
    6.1937    9.9353   26.4774 C   0  0  0  0  0  0  0  0  0  0  0  0
    7.1059    9.7221   25.4498 C   0  0  0  0  0  0  0  0  0  0  0  0
    8.0886   10.5831   25.0813 N   0  0  0  0  0  0  0  0  0  0  0  0
    8.1602   11.7409   25.7464 C   0  0  0  0  0  0  0  0  0  0  0  0
    7.3397   12.0254   26.8265 C   0  0  0  0  0  0  0  0  0  0  0  0
    7.3890   13.3280   27.5444 C   0  0  0  0  0  0  0  0  0  0  0  0
    6.9901   14.4939   26.6923 C   0  0  0  0  0  0  0  0  0  0  0  0
    7.7818   15.4315   26.6108 O   0  0  0  0  0  0  0  0  0  0  0  0
    5.7573   14.5112   26.0745 N   0  0  0  0  0  0  0  0  0  0  0  0
    5.4308   15.7354   25.3726 C   0  0  0  0  0  0  0  0  0  0  0  0
    4.0764   15.7411   24.6524 C   0  0  0  0  0  0  0  0  0  0  0  0
    2.9449   15.2500   25.4627 N   0  0  0  0  0  0  0  0  0  0  0  0
    1.7823   16.0310   25.4505 C   0  0  0  0  0  0  0  0  0  0  0  0
    1.7799   17.2580   25.4755 O   0  0  0  0  0  0  0  0  0  0  0  0
    0.5204   15.2161   25.2591 C   0  0  0  0  0  0  0  0  0  0  0  0
   -0.7439   15.7014   26.3872 Cl  0  0  0  0  0  0  0  0  0  0  0  0
    3.3696   14.7061   26.7597 C   0  0  1  0  0  0  0  0  0  0  0  0
    2.2870   14.0068   27.5343 C   0  0  0  0  0  0  0  0  0  0  0  0
    1.9285   12.6809   27.3159 C   0  0  0  0  0  0  0  0  0  0  0  0
    0.8596   12.1233   28.0029 C   0  0  0  0  0  0  0  0  0  0  0  0
    0.1787   12.9093   28.9090 C   0  0  0  0  0  0  0  0  0  0  0  0
    0.5243   14.1780   29.1893 N   0  0  0  0  0  0  0  0  0  0  0  0
    1.5566   14.7019   28.4936 C   0  0  0  0  0  0  0  0  0  0  0  0
    4.6007   13.7824   26.5645 C   0  0  0  0  0  0  0  0  0  0  0  0
    6.3868   11.0841   27.2140 C   0  0  0  0  0  0  0  0  0  0  0  0
  1  2  2  0
  2  3  1  0
  3  4  1  0
  2  5  1  0
  5  6  1  0
  6  7  2  0
  7  8  1  0
  8  9  2  0
  9 10  1  0
 10 11  1  0
 11 12  1  0
 12 13  2  0
 12 14  1  0
 14 15  1  0
 15 16  1  0
 16 17  1  0
 17 18  1  0
 18 19  2  0
 18 20  1  0
 20 21  1  0
 17 22  1  0
 22 23  1  6
 23 24  2  0
 24 25  1  0
 25 26  2  0
 26 27  1  0
 27 28  2  0
 22 29  1  0
 10 30  2  0
 30  6  1  0
 29 14  1  0
 28 23  1  0
M  END
>  <distance_score>  (49) 
1.855439

>  <ref_pdb>  (49) 
A1346a

>  <ref_mols>  (49) 
A1346a

>  <alias>  (49) 
None

>  <original SMILES>  (49) 
O=C(CO)Nc1cncc(CC(=O)N2CCN(C(=O)CCl)[C@@H](c3cccnc3)C2)c1

>  <inchikey>  (49) 
GLAVLZCLANXGGX-QGZVFWFLSA-N

>  <exports>  (49) 
['/opt/xchem-fragalysis-2/maxwin/2A_HIPPO/hippo/A71EV2A_10_recipes/Recipe_1LPUPHX_poses.sdf', '/opt/xchem-fragalysis-2/maxwin/2A_HIPPO/hippo/A71EV2A_10_recipes/Recipe_1LPVPY0_poses.sdf']

>  <original ID>  (49) 
GLAVLZCLANXGGX-QGZVFWFLSA-N

>  <energy_score>  (49) 
-63.915923

>  <tags>  (49) 
[]

>  <HIPPO ID>  (49) 
41198

>  <name>  (49) 
GLAVLZCLANXGGX-QGZVFWFLSA-N

$$$$
KKHICEOOLIHEJQ-UHFFFAOYSA-N
     RDKit          3D

 21 23  0  0  0  0  0  0  0  0999 V2000
    8.5177   14.7731   21.8516 O   0  0  0  0  0  0  0  0  0  0  0  0
    9.6152   14.4015   22.2287 C   0  0  0  0  0  0  0  0  0  0  0  0
   10.7733   15.1419   22.0014 N   0  0  0  0  0  0  0  0  0  0  0  0
   11.8334   14.6358   22.8185 C   0  0  0  0  0  0  0  0  0  0  0  0
   11.3914   13.2009   23.0904 C   0  0  0  0  0  0  0  0  0  0  0  0
    9.9577   13.2570   22.9737 N   0  0  0  0  0  0  0  0  0  0  0  0
    9.0609   12.3744   23.6277 C   0  0  0  0  0  0  0  0  0  0  0  0
    7.9036   12.8994   24.1872 C   0  0  0  0  0  0  0  0  0  0  0  0
    7.0745   12.1240   25.0034 C   0  0  0  0  0  0  0  0  0  0  0  0
    7.3134   10.7714   25.2319 C   0  0  0  0  0  0  0  0  0  0  0  0
    6.5835   10.0112   26.1269 N   0  0  0  0  0  0  0  0  0  0  0  0
    5.4891   10.5129   26.9374 C   0  0  0  0  0  0  0  0  0  0  0  0
    5.9992   10.9122   28.3031 C   0  0  0  0  0  0  0  0  0  0  0  0
    6.0064    9.9810   29.3547 C   0  0  0  0  0  0  0  0  0  0  0  0
    6.5459   10.3133   30.6005 C   0  0  0  0  0  0  0  0  0  0  0  0
    7.0923   11.5786   30.8059 C   0  0  0  0  0  0  0  0  0  0  0  0
    7.0836   12.5041   29.7697 C   0  0  0  0  0  0  0  0  0  0  0  0
    7.6392   13.7084   29.9574 F   0  0  0  0  0  0  0  0  0  0  0  0
    6.5357   12.1883   28.5310 C   0  0  0  0  0  0  0  0  0  0  0  0
    8.4192   10.2181   24.5784 C   0  0  0  0  0  0  0  0  0  0  0  0
    9.2993   11.0107   23.8102 C   0  0  0  0  0  0  0  0  0  0  0  0
  1  2  2  0
  2  3  1  0
  3  4  1  0
  4  5  1  0
  5  6  1  0
  6  7  1  0
  7  8  2  0
  8  9  1  0
  9 10  2  0
 10 11  1  0
 11 12  1  0
 12 13  1  0
 13 14  2  0
 14 15  1  0
 15 16  2  0
 16 17  1  0
 17 18  1  0
 17 19  2  0
 10 20  1  0
 20 21  2  0
  6  2  1  0
 21  7  1  0
 19 13  1  0
M  END
>  <distance_score>  (50) 
1.516005

>  <ref_pdb>  (50) 
A0310a

>  <ref_mols>  (50) 
A0528a,A0365a

>  <alias>  (50) 
None

>  <original SMILES>  (50) 
O=C1NCCN1c1ccc(NCc2cccc(F)c2)cc1

>  <inchikey>  (50) 
KKHICEOOLIHEJQ-UHFFFAOYSA-N

>  <exports>  (50) 
['/opt/xchem-fragalysis-2/maxwin/2A_HIPPO/hippo/A71EV2A_10_recipes/Recipe_1LPUPHX_poses.sdf', '/opt/xchem-fragalysis-2/maxwin/2A_HIPPO/hippo/A71EV2A_10_recipes/Recipe_1LPVPY0_poses.sdf']

>  <original ID>  (50) 
KKHICEOOLIHEJQ-UHFFFAOYSA-N

>  <energy_score>  (50) 
-31.644276

>  <tags>  (50) 
['Syndirella scaffold']

>  <HIPPO ID>  (50) 
46157

>  <name>  (50) 
KKHICEOOLIHEJQ-UHFFFAOYSA-N

$$$$
DZYWIJBAAWZOIC-UHFFFAOYSA-N
     RDKit          3D

 22 24  0  0  0  0  0  0  0  0999 V2000
    8.5395   14.7732   21.8282 O   0  0  0  0  0  0  0  0  0  0  0  0
    9.6346   14.4011   22.2118 C   0  0  0  0  0  0  0  0  0  0  0  0
   10.7913   15.1505   22.0044 N   0  0  0  0  0  0  0  0  0  0  0  0
   11.8400   14.6482   22.8382 C   0  0  0  0  0  0  0  0  0  0  0  0
   11.4077   13.2065   23.0877 C   0  0  0  0  0  0  0  0  0  0  0  0
    9.9758   13.2494   22.9480 N   0  0  0  0  0  0  0  0  0  0  0  0
    9.0769   12.3704   23.6047 C   0  0  0  0  0  0  0  0  0  0  0  0
    7.9217   12.9008   24.1597 C   0  0  0  0  0  0  0  0  0  0  0  0
    7.0925   12.1327   24.9813 C   0  0  0  0  0  0  0  0  0  0  0  0
    7.3264   10.7819   25.2237 C   0  0  0  0  0  0  0  0  0  0  0  0
    6.5997   10.0344   26.1369 N   0  0  0  0  0  0  0  0  0  0  0  0
    5.5087   10.5734   26.9341 C   0  0  0  0  0  0  0  0  0  0  0  0
    6.0095   10.9417   28.3072 C   0  0  0  0  0  0  0  0  0  0  0  0
    6.0480    9.9744   29.3271 C   0  0  0  0  0  0  0  0  0  0  0  0
    6.5917   10.2752   30.5799 C   0  0  0  0  0  0  0  0  0  0  0  0
    7.1147   11.5437   30.8255 C   0  0  0  0  0  0  0  0  0  0  0  0
    7.0725   12.5069   29.8238 C   0  0  0  0  0  0  0  0  0  0  0  0
    7.6044   13.7153   30.0552 F   0  0  0  0  0  0  0  0  0  0  0  0
    6.5127   12.2177   28.5833 C   0  0  0  0  0  0  0  0  0  0  0  0
    6.4808   13.1809   27.6531 F   0  0  0  0  0  0  0  0  0  0  0  0
    8.4284   10.2202   24.5711 C   0  0  0  0  0  0  0  0  0  0  0  0
    9.3104   11.0063   23.7958 C   0  0  0  0  0  0  0  0  0  0  0  0
  1  2  2  0
  2  3  1  0
  3  4  1  0
  4  5  1  0
  5  6  1  0
  6  7  1  0
  7  8  2  0
  8  9  1  0
  9 10  2  0
 10 11  1  0
 11 12  1  0
 12 13  1  0
 13 14  2  0
 14 15  1  0
 15 16  2  0
 16 17  1  0
 17 18  1  0
 17 19  2  0
 19 20  1  0
 10 21  1  0
 21 22  2  0
  6  2  1  0
 22  7  1  0
 19 13  1  0
M  END
>  <distance_score>  (51) 
1.509575

>  <ref_pdb>  (51) 
A0310a

>  <ref_mols>  (51) 
A0528a,A0365a

>  <alias>  (51) 
None

>  <original SMILES>  (51) 
O=C1NCCN1c1ccc(NCc2cccc(F)c2F)cc1

>  <inchikey>  (51) 
DZYWIJBAAWZOIC-UHFFFAOYSA-N

>  <exports>  (51) 
['/opt/xchem-fragalysis-2/maxwin/2A_HIPPO/hippo/A71EV2A_10_recipes/Recipe_1LPVPY0_poses.sdf']

>  <original ID>  (51) 
DZYWIJBAAWZOIC-UHFFFAOYSA-N

>  <energy_score>  (51) 
-51.134975

>  <tags>  (51) 
[]

>  <HIPPO ID>  (51) 
46178

>  <name>  (51) 
DZYWIJBAAWZOIC-UHFFFAOYSA-N

$$$$
SUPVYZVXXWTTBR-UHFFFAOYSA-N
     RDKit          3D

 22 24  0  0  0  0  0  0  0  0999 V2000
    8.5088   14.7711   21.8686 O   0  0  0  0  0  0  0  0  0  0  0  0
    9.6061   14.3956   22.2417 C   0  0  0  0  0  0  0  0  0  0  0  0
   10.7665   15.1328   22.0127 N   0  0  0  0  0  0  0  0  0  0  0  0
   11.8244   14.6255   22.8304 C   0  0  0  0  0  0  0  0  0  0  0  0
   11.3793   13.1916   23.1026 C   0  0  0  0  0  0  0  0  0  0  0  0
    9.9465   13.2514   22.9888 N   0  0  0  0  0  0  0  0  0  0  0  0
    9.0479   12.3708   23.6421 C   0  0  0  0  0  0  0  0  0  0  0  0
    7.8912   12.8981   24.2005 C   0  0  0  0  0  0  0  0  0  0  0  0
    7.0594   12.1244   25.0152 C   0  0  0  0  0  0  0  0  0  0  0  0
    7.2949   10.7713   25.2433 C   0  0  0  0  0  0  0  0  0  0  0  0
    6.5606   10.0114   26.1356 N   0  0  0  0  0  0  0  0  0  0  0  0
    5.4659   10.5168   26.9441 C   0  0  0  0  0  0  0  0  0  0  0  0
    5.9863   10.9141   28.3072 C   0  0  0  0  0  0  0  0  0  0  0  0
    6.0285    9.9703   29.3463 C   0  0  0  0  0  0  0  0  0  0  0  0
    6.6186   10.2854   30.5734 C   0  0  0  0  0  0  0  0  0  0  0  0
    7.1779   11.5478   30.7677 C   0  0  0  0  0  0  0  0  0  0  0  0
    8.0576   11.9311   32.3951 Br  0  0  0  0  0  0  0  0  0  0  0  0
    7.1165   12.4984   29.7530 C   0  0  0  0  0  0  0  0  0  0  0  0
    7.6736   13.7083   29.9106 F   0  0  0  0  0  0  0  0  0  0  0  0
    6.5175   12.1931   28.5340 C   0  0  0  0  0  0  0  0  0  0  0  0
    8.4012   10.2161   24.5921 C   0  0  0  0  0  0  0  0  0  0  0  0
    9.2837   11.0067   23.8249 C   0  0  0  0  0  0  0  0  0  0  0  0
  1  2  2  0
  2  3  1  0
  3  4  1  0
  4  5  1  0
  5  6  1  0
  6  7  1  0
  7  8  2  0
  8  9  1  0
  9 10  2  0
 10 11  1  0
 11 12  1  0
 12 13  1  0
 13 14  2  0
 14 15  1  0
 15 16  2  0
 16 17  1  0
 16 18  1  0
 18 19  1  0
 18 20  2  0
 10 21  1  0
 21 22  2  0
  6  2  1  0
 22  7  1  0
 20 13  1  0
M  END
>  <distance_score>  (52) 
1.517979

>  <ref_pdb>  (52) 
A0310a

>  <ref_mols>  (52) 
A0528a,A0365a

>  <alias>  (52) 
None

>  <original SMILES>  (52) 
O=C1NCCN1c1ccc(NCc2ccc(Br)c(F)c2)cc1

>  <inchikey>  (52) 
SUPVYZVXXWTTBR-UHFFFAOYSA-N

>  <exports>  (52) 
['/opt/xchem-fragalysis-2/maxwin/2A_HIPPO/hippo/A71EV2A_10_recipes/Recipe_1LPVPY0_poses.sdf']

>  <original ID>  (52) 
SUPVYZVXXWTTBR-UHFFFAOYSA-N

>  <energy_score>  (52) 
-30.889611

>  <tags>  (52) 
[]

>  <HIPPO ID>  (52) 
46192

>  <name>  (52) 
SUPVYZVXXWTTBR-UHFFFAOYSA-N

$$$$
IYKYOMCMGDHSFN-UHFFFAOYSA-N
     RDKit          3D

 23 25  0  0  0  0  0  0  0  0999 V2000
   12.7688   15.2228   22.8084 O   0  0  0  0  0  0  0  0  0  0  0  0
   11.7674   14.6115   22.5070 C   0  0  0  0  0  0  0  0  0  0  0  0
   10.7530   15.0109   21.7228 N   0  0  0  0  0  0  0  0  0  0  0  0
    9.6413   14.3030   22.0640 C   0  0  0  0  0  0  0  0  0  0  0  0
    8.5263   14.7297   21.7974 O   0  0  0  0  0  0  0  0  0  0  0  0
    9.9692   13.1817   22.7976 N   0  0  0  0  0  0  0  0  0  0  0  0
    9.0657   12.3435   23.5206 C   0  0  0  0  0  0  0  0  0  0  0  0
    7.9304   12.8929   24.1065 C   0  0  0  0  0  0  0  0  0  0  0  0
    7.1113   12.1363   24.9546 C   0  0  0  0  0  0  0  0  0  0  0  0
    7.3370   10.7826   25.1964 C   0  0  0  0  0  0  0  0  0  0  0  0
    6.6033   10.0368   26.0984 N   0  0  0  0  0  0  0  0  0  0  0  0
    5.5076   10.5395   26.9051 C   0  0  0  0  0  0  0  0  0  0  0  0
    6.0097   10.9315   28.2751 C   0  0  0  0  0  0  0  0  0  0  0  0
    6.0113    9.9955   29.3226 C   0  0  0  0  0  0  0  0  0  0  0  0
    6.5426   10.3231   30.5733 C   0  0  0  0  0  0  0  0  0  0  0  0
    7.0861   11.5881   30.7876 C   0  0  0  0  0  0  0  0  0  0  0  0
    7.0833   12.5178   29.7551 C   0  0  0  0  0  0  0  0  0  0  0  0
    7.6353   13.7224   29.9511 F   0  0  0  0  0  0  0  0  0  0  0  0
    6.5441   12.2067   28.5114 C   0  0  0  0  0  0  0  0  0  0  0  0
    8.4296   10.2102   24.5384 C   0  0  0  0  0  0  0  0  0  0  0  0
    9.2976   10.9796   23.7345 C   0  0  0  0  0  0  0  0  0  0  0  0
   11.2744   13.3178   23.1678 C   0  0  0  0  0  0  0  0  0  0  0  0
   11.9242   12.7223   24.0006 O   0  0  0  0  0  0  0  0  0  0  0  0
  1  2  2  0
  2  3  1  0
  3  4  1  0
  4  5  2  0
  4  6  1  0
  6  7  1  0
  7  8  2  0
  8  9  1  0
  9 10  2  0
 10 11  1  0
 11 12  1  0
 12 13  1  0
 13 14  2  0
 14 15  1  0
 15 16  2  0
 16 17  1  0
 17 18  1  0
 17 19  2  0
 10 20  1  0
 20 21  2  0
  6 22  1  0
 22 23  2  0
 22  2  1  0
 21  7  1  0
 19 13  1  0
M  END
>  <distance_score>  (53) 
1.581173

>  <ref_pdb>  (53) 
A0310a

>  <ref_mols>  (53) 
A0528a,A0365a

>  <alias>  (53) 
None

>  <original SMILES>  (53) 
O=C1NC(=O)N(c2ccc(NCc3cccc(F)c3)cc2)C1=O

>  <inchikey>  (53) 
IYKYOMCMGDHSFN-UHFFFAOYSA-N

>  <exports>  (53) 
['/opt/xchem-fragalysis-2/maxwin/2A_HIPPO/hippo/A71EV2A_10_recipes/Recipe_1LPUPHX_poses.sdf', '/opt/xchem-fragalysis-2/maxwin/2A_HIPPO/hippo/A71EV2A_10_recipes/Recipe_1LPVPY0_poses.sdf']

>  <original ID>  (53) 
IYKYOMCMGDHSFN-UHFFFAOYSA-N

>  <energy_score>  (53) 
-10.316135

>  <tags>  (53) 
[]

>  <HIPPO ID>  (53) 
46211

>  <name>  (53) 
IYKYOMCMGDHSFN-UHFFFAOYSA-N

$$$$
FOPXNWZKLWOLTL-UHFFFAOYSA-N
     RDKit          3D

 24 26  0  0  0  0  0  0  0  0999 V2000
   12.7736   15.1954   22.7345 O   0  0  0  0  0  0  0  0  0  0  0  0
   11.7496   14.6032   22.4717 C   0  0  0  0  0  0  0  0  0  0  0  0
   10.7199   15.0128   21.7139 N   0  0  0  0  0  0  0  0  0  0  0  0
    9.6119   14.3062   22.0689 C   0  0  0  0  0  0  0  0  0  0  0  0
    8.4943   14.7329   21.8148 O   0  0  0  0  0  0  0  0  0  0  0  0
    9.9474   13.1860   22.8006 N   0  0  0  0  0  0  0  0  0  0  0  0
    9.0503   12.3472   23.5304 C   0  0  0  0  0  0  0  0  0  0  0  0
    7.9164   12.8954   24.1201 C   0  0  0  0  0  0  0  0  0  0  0  0
    7.0988   12.1381   24.9688 C   0  0  0  0  0  0  0  0  0  0  0  0
    7.3234   10.7839   25.2069 C   0  0  0  0  0  0  0  0  0  0  0  0
    6.5908   10.0358   26.1097 N   0  0  0  0  0  0  0  0  0  0  0  0
    5.4905   10.5414   26.9106 C   0  0  0  0  0  0  0  0  0  0  0  0
    5.9990   10.9312   28.2797 C   0  0  0  0  0  0  0  0  0  0  0  0
    6.0309    9.9833   29.3155 C   0  0  0  0  0  0  0  0  0  0  0  0
    6.6110   10.2929   30.5490 C   0  0  0  0  0  0  0  0  0  0  0  0
    7.1701   11.5538   30.7531 C   0  0  0  0  0  0  0  0  0  0  0  0
    8.0370   11.9296   32.3891 Br  0  0  0  0  0  0  0  0  0  0  0  0
    7.1183   12.5084   29.7416 C   0  0  0  0  0  0  0  0  0  0  0  0
    7.6741   13.7176   29.9081 F   0  0  0  0  0  0  0  0  0  0  0  0
    6.5298   12.2085   28.5160 C   0  0  0  0  0  0  0  0  0  0  0  0
    8.4166   10.2132   24.5479 C   0  0  0  0  0  0  0  0  0  0  0  0
    9.2837   10.9835   23.7434 C   0  0  0  0  0  0  0  0  0  0  0  0
   11.2590   13.3158   23.1475 C   0  0  0  0  0  0  0  0  0  0  0  0
   11.9218   12.7190   23.9694 O   0  0  0  0  0  0  0  0  0  0  0  0
  1  2  2  0
  2  3  1  0
  3  4  1  0
  4  5  2  0
  4  6  1  0
  6  7  1  0
  7  8  2  0
  8  9  1  0
  9 10  2  0
 10 11  1  0
 11 12  1  0
 12 13  1  0
 13 14  2  0
 14 15  1  0
 15 16  2  0
 16 17  1  0
 16 18  1  0
 18 19  1  0
 18 20  2  0
 10 21  1  0
 21 22  2  0
  6 23  1  0
 23 24  2  0
 23  2  1  0
 22  7  1  0
 20 13  1  0
M  END
>  <distance_score>  (54) 
1.58474

>  <ref_pdb>  (54) 
A0310a

>  <ref_mols>  (54) 
A0528a,A0365a

>  <alias>  (54) 
None

>  <original SMILES>  (54) 
O=C1NC(=O)N(c2ccc(NCc3ccc(Br)c(F)c3)cc2)C1=O

>  <inchikey>  (54) 
FOPXNWZKLWOLTL-UHFFFAOYSA-N

>  <exports>  (54) 
['/opt/xchem-fragalysis-2/maxwin/2A_HIPPO/hippo/A71EV2A_10_recipes/Recipe_1LPVPY0_poses.sdf']

>  <original ID>  (54) 
FOPXNWZKLWOLTL-UHFFFAOYSA-N

>  <energy_score>  (54) 
-15.346452

>  <tags>  (54) 
[]

>  <HIPPO ID>  (54) 
47723

>  <name>  (54) 
FOPXNWZKLWOLTL-UHFFFAOYSA-N

$$$$
NAABGMUKYJKHRZ-UHFFFAOYSA-N
     RDKit          3D

 24 26  0  0  0  0  0  0  0  0999 V2000
   12.7846   15.1979   22.7426 O   0  0  0  0  0  0  0  0  0  0  0  0
   11.7623   14.6057   22.4735 C   0  0  0  0  0  0  0  0  0  0  0  0
   10.7361   15.0160   21.7118 N   0  0  0  0  0  0  0  0  0  0  0  0
    9.6281   14.3051   22.0577 C   0  0  0  0  0  0  0  0  0  0  0  0
    8.5117   14.7319   21.7987 O   0  0  0  0  0  0  0  0  0  0  0  0
    9.9629   13.1817   22.7856 N   0  0  0  0  0  0  0  0  0  0  0  0
    9.0641   12.3417   23.5114 C   0  0  0  0  0  0  0  0  0  0  0  0
    7.9311   12.8925   24.0966 C   0  0  0  0  0  0  0  0  0  0  0  0
    7.1158   12.1396   24.9493 C   0  0  0  0  0  0  0  0  0  0  0  0
    7.3398   10.7878   25.2003 C   0  0  0  0  0  0  0  0  0  0  0  0
    6.6159   10.0515   26.1238 N   0  0  0  0  0  0  0  0  0  0  0  0
    5.5224   10.5913   26.9165 C   0  0  0  0  0  0  0  0  0  0  0  0
    6.0173   10.9568   28.2920 C   0  0  0  0  0  0  0  0  0  0  0  0
    6.0483    9.9894   29.3121 C   0  0  0  0  0  0  0  0  0  0  0  0
    6.5864   10.2895   30.5676 C   0  0  0  0  0  0  0  0  0  0  0  0
    7.1108   11.5571   30.8155 C   0  0  0  0  0  0  0  0  0  0  0  0
    7.0761   12.5199   29.8132 C   0  0  0  0  0  0  0  0  0  0  0  0
    7.6090   13.7275   30.0464 F   0  0  0  0  0  0  0  0  0  0  0  0
    6.5226   12.2314   28.5698 C   0  0  0  0  0  0  0  0  0  0  0  0
    6.4994   13.1930   27.6374 F   0  0  0  0  0  0  0  0  0  0  0  0
    8.4289   10.2114   24.5402 C   0  0  0  0  0  0  0  0  0  0  0  0
    9.2954   10.9778   23.7298 C   0  0  0  0  0  0  0  0  0  0  0  0
   11.2716   13.3143   23.1414 C   0  0  0  0  0  0  0  0  0  0  0  0
   11.9328   12.7157   23.9633 O   0  0  0  0  0  0  0  0  0  0  0  0
  1  2  2  0
  2  3  1  0
  3  4  1  0
  4  5  2  0
  4  6  1  0
  6  7  1  0
  7  8  2  0
  8  9  1  0
  9 10  2  0
 10 11  1  0
 11 12  1  0
 12 13  1  0
 13 14  2  0
 14 15  1  0
 15 16  2  0
 16 17  1  0
 17 18  1  0
 17 19  2  0
 19 20  1  0
 10 21  1  0
 21 22  2  0
  6 23  1  0
 23 24  2  0
 23  2  1  0
 22  7  1  0
 19 13  1  0
M  END
>  <distance_score>  (55) 
1.582201

>  <ref_pdb>  (55) 
A0310a

>  <ref_mols>  (55) 
A0528a,A0365a

>  <alias>  (55) 
None

>  <original SMILES>  (55) 
O=C1NC(=O)N(c2ccc(NCc3cccc(F)c3F)cc2)C1=O

>  <inchikey>  (55) 
NAABGMUKYJKHRZ-UHFFFAOYSA-N

>  <exports>  (55) 
['/opt/xchem-fragalysis-2/maxwin/2A_HIPPO/hippo/A71EV2A_10_recipes/Recipe_1LPVPY0_poses.sdf']

>  <original ID>  (55) 
NAABGMUKYJKHRZ-UHFFFAOYSA-N

>  <energy_score>  (55) 
-25.541549

>  <tags>  (55) 
[]

>  <HIPPO ID>  (55) 
47733

>  <name>  (55) 
NAABGMUKYJKHRZ-UHFFFAOYSA-N

$$$$
AKBIFIUVGFTRED-UHFFFAOYSA-N
     RDKit          3D

 23 25  0  0  0  0  0  0  0  0999 V2000
    7.1101   14.6340   31.5784 C   0  0  0  0  0  0  0  0  0  0  0  0
    7.8467   14.1139   30.0073 S   0  0  0  0  0  0  0  0  0  0  0  0
    7.1304   12.4874   29.8410 C   0  0  0  0  0  0  0  0  0  0  0  0
    7.2455   11.5188   30.8399 C   0  0  0  0  0  0  0  0  0  0  0  0
    6.7144   10.2420   30.6469 C   0  0  0  0  0  0  0  0  0  0  0  0
    6.0860    9.9178   29.4441 C   0  0  0  0  0  0  0  0  0  0  0  0
    5.9764   10.8663   28.4205 C   0  0  0  0  0  0  0  0  0  0  0  0
    5.3456   10.4870   27.1005 C   0  0  0  0  0  0  0  0  0  0  0  0
    6.3108    9.9678   26.1626 N   0  0  0  0  0  0  0  0  0  0  0  0
    7.1762   10.7120   25.4058 C   0  0  0  0  0  0  0  0  0  0  0  0
    7.0154   12.0721   25.2312 C   0  0  0  0  0  0  0  0  0  0  0  0
    7.9262   12.8001   24.4793 C   0  0  0  0  0  0  0  0  0  0  0  0
    8.9909   12.1810   23.8398 C   0  0  0  0  0  0  0  0  0  0  0  0
    9.9287   12.9185   23.0825 N   0  0  0  0  0  0  0  0  0  0  0  0
   11.0787   13.3865   23.8859 C   0  0  0  0  0  0  0  0  0  0  0  0
   12.1198   14.0537   22.9763 C   0  0  0  0  0  0  0  0  0  0  0  0
   11.5850   15.1161   22.1589 N   0  0  0  0  0  0  0  0  0  0  0  0
   10.3607   14.9361   21.5591 C   0  0  0  0  0  0  0  0  0  0  0  0
   10.0570   15.5833   20.5579 O   0  0  0  0  0  0  0  0  0  0  0  0
    9.3493   14.0365   22.2767 C   0  0  0  0  0  0  0  0  0  0  0  0
    9.0519   10.7946   24.0247 C   0  0  0  0  0  0  0  0  0  0  0  0
    8.1851   10.0637   24.7966 N   0  0  0  0  0  0  0  0  0  0  0  0
    6.4921   12.1554   28.6409 C   0  0  0  0  0  0  0  0  0  0  0  0
  1  2  1  0
  2  3  1  0
  3  4  2  0
  4  5  1  0
  5  6  2  0
  6  7  1  0
  7  8  1  0
  8  9  1  0
  9 10  1  0
 10 11  2  0
 11 12  1  0
 12 13  2  0
 13 14  1  0
 14 15  1  0
 15 16  1  0
 16 17  1  0
 17 18  1  0
 18 19  2  0
 18 20  1  0
 13 21  1  0
 21 22  2  0
  7 23  2  0
 23  3  1  0
 22 10  1  0
 20 14  1  0
M  END
>  <distance_score>  (56) 
1.465264

>  <ref_pdb>  (56) 
A0310a

>  <ref_mols>  (56) 
A0528a,A0365a

>  <alias>  (56) 
None

>  <original SMILES>  (56) 
CSc1cccc(CNc2ccc(N3CCNC(=O)C3)cn2)c1

>  <inchikey>  (56) 
AKBIFIUVGFTRED-UHFFFAOYSA-N

>  <exports>  (56) 
['/opt/xchem-fragalysis-2/maxwin/2A_HIPPO/hippo/A71EV2A_10_recipes/Recipe_1LPUPHX_poses.sdf', '/opt/xchem-fragalysis-2/maxwin/2A_HIPPO/hippo/A71EV2A_10_recipes/Recipe_1LPVPY0_poses.sdf']

>  <original ID>  (56) 
AKBIFIUVGFTRED-UHFFFAOYSA-N

>  <energy_score>  (56) 
-42.799401

>  <tags>  (56) 
['Syndirella scaffold']

>  <HIPPO ID>  (56) 
48855

>  <name>  (56) 
AKBIFIUVGFTRED-UHFFFAOYSA-N

$$$$
WAHJAKREJFXDHP-KRWDZBQOSA-N
     RDKit          3D

 24 26  0  0  0  0  0  0  0  0999 V2000
    9.3391   14.0155   31.0703 C   0  0  0  0  0  0  0  0  0  0  0  0
    7.9057   14.2448   29.9828 S   0  0  0  0  0  0  0  0  0  0  0  0
    7.2567   12.5856   29.8486 C   0  0  0  0  0  0  0  0  0  0  0  0
    7.3874   11.6174   30.8464 C   0  0  0  0  0  0  0  0  0  0  0  0
    6.8857   10.3293   30.6531 C   0  0  0  0  0  0  0  0  0  0  0  0
    6.2430   10.0007   29.4608 C   0  0  0  0  0  0  0  0  0  0  0  0
    6.0663   10.9601   28.4523 C   0  0  0  0  0  0  0  0  0  0  0  0
    5.3490   10.6196   27.1584 C   0  0  2  0  0  0  0  0  0  0  0  0
    4.3416    9.6563   27.4284 O   0  0  0  0  0  0  0  0  0  0  0  0
    6.2203   10.0784   26.1559 N   0  0  0  0  0  0  0  0  0  0  0  0
    7.0899   10.8525   25.4190 C   0  0  0  0  0  0  0  0  0  0  0  0
    6.8469   12.1944   25.1856 C   0  0  0  0  0  0  0  0  0  0  0  0
    7.7642   12.9708   24.4907 C   0  0  0  0  0  0  0  0  0  0  0  0
    8.9430   12.4364   23.9922 C   0  0  0  0  0  0  0  0  0  0  0  0
    9.8633   13.3347   23.4565 N   0  0  0  0  0  0  0  0  0  0  0  0
   11.3009   13.0952   23.4924 C   0  0  0  0  0  0  0  0  0  0  0  0
   12.0192   14.4545   23.4198 C   0  0  0  0  0  0  0  0  0  0  0  0
   11.6733   15.1749   22.2195 N   0  0  0  0  0  0  0  0  0  0  0  0
   10.4265   15.0819   21.6589 C   0  0  0  0  0  0  0  0  0  0  0  0
   10.1393   15.7611   20.6741 O   0  0  0  0  0  0  0  0  0  0  0  0
    9.4208   14.0837   22.2481 C   0  0  0  0  0  0  0  0  0  0  0  0
    9.0583   11.0563   24.1746 C   0  0  0  0  0  0  0  0  0  0  0  0
    8.1760   10.2674   24.8802 N   0  0  0  0  0  0  0  0  0  0  0  0
    6.5739   12.2540   28.6695 C   0  0  0  0  0  0  0  0  0  0  0  0
  1  2  1  0
  2  3  1  0
  3  4  2  0
  4  5  1  0
  5  6  2  0
  6  7  1  0
  7  8  1  0
  8  9  1  1
  8 10  1  0
 10 11  1  0
 11 12  2  0
 12 13  1  0
 13 14  2  0
 14 15  1  0
 15 16  1  0
 16 17  1  0
 17 18  1  0
 18 19  1  0
 19 20  2  0
 19 21  1  0
 14 22  1  0
 22 23  2  0
  7 24  2  0
 24  3  1  0
 23 11  1  0
 21 15  1  0
M  END
>  <distance_score>  (57) 
1.485579

>  <ref_pdb>  (57) 
A0310a

>  <ref_mols>  (57) 
A0528a,A0365a

>  <alias>  (57) 
None

>  <original SMILES>  (57) 
CSc1cccc([C@H](O)Nc2ccc(N3CCNC(=O)C3)cn2)c1

>  <inchikey>  (57) 
WAHJAKREJFXDHP-KRWDZBQOSA-N

>  <exports>  (57) 
['/opt/xchem-fragalysis-2/maxwin/2A_HIPPO/hippo/A71EV2A_10_recipes/Recipe_1LPVPY0_poses.sdf']

>  <original ID>  (57) 
WAHJAKREJFXDHP-KRWDZBQOSA-N

>  <energy_score>  (57) 
-31.409066

>  <tags>  (57) 
[]

>  <HIPPO ID>  (57) 
48860

>  <name>  (57) 
WAHJAKREJFXDHP-KRWDZBQOSA-N

$$$$
WAHJAKREJFXDHP-QGZVFWFLSA-N
     RDKit          3D

 24 26  0  0  0  0  0  0  0  0999 V2000
    6.5107   15.1784   29.7406 C   0  0  0  0  0  0  0  0  0  0  0  0
    7.8775   14.0845   30.2167 S   0  0  0  0  0  0  0  0  0  0  0  0
    7.1559   12.4854   29.8866 C   0  0  0  0  0  0  0  0  0  0  0  0
    7.2776   11.4785   30.8459 C   0  0  0  0  0  0  0  0  0  0  0  0
    6.7630   10.2045   30.6017 C   0  0  0  0  0  0  0  0  0  0  0  0
    6.1500    9.9187   29.3809 C   0  0  0  0  0  0  0  0  0  0  0  0
    6.0378   10.9023   28.3881 C   0  0  0  0  0  0  0  0  0  0  0  0
    5.4101   10.5547   27.0560 C   0  0  1  0  0  0  0  0  0  0  0  0
    4.6583   11.6420   26.5599 O   0  0  0  0  0  0  0  0  0  0  0  0
    6.3460   10.0970   26.0659 N   0  0  0  0  0  0  0  0  0  0  0  0
    7.2820   10.8373   25.3904 C   0  0  0  0  0  0  0  0  0  0  0  0
    7.2211   12.2137   25.2997 C   0  0  0  0  0  0  0  0  0  0  0  0
    8.1369   12.9176   24.5376 C   0  0  0  0  0  0  0  0  0  0  0  0
    9.1248   12.2731   23.8157 C   0  0  0  0  0  0  0  0  0  0  0  0
    9.9865   13.0172   23.0229 N   0  0  0  0  0  0  0  0  0  0  0  0
   11.4111   13.1150   23.3587 C   0  0  0  0  0  0  0  0  0  0  0  0
   11.8951   14.5716   23.4254 C   0  0  0  0  0  0  0  0  0  0  0  0
   11.6127   15.2684   22.1947 N   0  0  0  0  0  0  0  0  0  0  0  0
   10.4346   15.0451   21.5271 C   0  0  0  0  0  0  0  0  0  0  0  0
   10.1737   15.6329   20.4801 O   0  0  0  0  0  0  0  0  0  0  0  0
    9.4233   14.1123   22.1920 C   0  0  0  0  0  0  0  0  0  0  0  0
    9.1247   10.8816   23.9571 C   0  0  0  0  0  0  0  0  0  0  0  0
    8.2381   10.1634   24.7255 N   0  0  0  0  0  0  0  0  0  0  0  0
    6.5300   12.1907   28.6715 C   0  0  0  0  0  0  0  0  0  0  0  0
  1  2  1  0
  2  3  1  0
  3  4  2  0
  4  5  1  0
  5  6  2  0
  6  7  1  0
  7  8  1  0
  8  9  1  6
  8 10  1  0
 10 11  1  0
 11 12  2  0
 12 13  1  0
 13 14  2  0
 14 15  1  0
 15 16  1  0
 16 17  1  0
 17 18  1  0
 18 19  1  0
 19 20  2  0
 19 21  1  0
 14 22  1  0
 22 23  2  0
  7 24  2  0
 24  3  1  0
 23 11  1  0
 21 15  1  0
M  END
>  <distance_score>  (58) 
1.405862

>  <ref_pdb>  (58) 
A0310a

>  <ref_mols>  (58) 
A0528a,A0365a

>  <alias>  (58) 
None

>  <original SMILES>  (58) 
CSc1cccc([C@@H](O)Nc2ccc(N3CCNC(=O)C3)cn2)c1

>  <inchikey>  (58) 
WAHJAKREJFXDHP-QGZVFWFLSA-N

>  <exports>  (58) 
['/opt/xchem-fragalysis-2/maxwin/2A_HIPPO/hippo/A71EV2A_10_recipes/Recipe_1LPVPY0_poses.sdf']

>  <original ID>  (58) 
WAHJAKREJFXDHP-QGZVFWFLSA-N

>  <energy_score>  (58) 
-16.783696

>  <tags>  (58) 
[]

>  <HIPPO ID>  (58) 
48861

>  <name>  (58) 
WAHJAKREJFXDHP-QGZVFWFLSA-N

$$$$
UXHPYTOICLLREQ-UHFFFAOYSA-N
     RDKit          3D

 24 26  0  0  0  0  0  0  0  0999 V2000
    9.3164   13.9273   30.9475 C   0  0  0  0  0  0  0  0  0  0  0  0
    7.8570   14.1436   29.8956 S   0  0  0  0  0  0  0  0  0  0  0  0
    7.1790   12.4911   29.8346 C   0  0  0  0  0  0  0  0  0  0  0  0
    7.2991   11.5605   30.8680 C   0  0  0  0  0  0  0  0  0  0  0  0
    6.7628   10.2773   30.7299 C   0  0  0  0  0  0  0  0  0  0  0  0
    6.1009    9.9128   29.5573 C   0  0  0  0  0  0  0  0  0  0  0  0
    5.9531   10.8303   28.5128 C   0  0  0  0  0  0  0  0  0  0  0  0
    5.2438   10.4263   27.2409 C   0  0  0  0  0  0  0  0  0  0  0  0
    6.1442    9.9181   26.2326 N   0  0  0  0  0  0  0  0  0  0  0  0
    6.9942   10.7034   25.4951 C   0  0  0  0  0  0  0  0  0  0  0  0
    6.7328   12.0402   25.2734 C   0  0  0  0  0  0  0  0  0  0  0  0
    7.6354   12.8206   24.5747 C   0  0  0  0  0  0  0  0  0  0  0  0
    8.8091   12.2867   24.0649 C   0  0  0  0  0  0  0  0  0  0  0  0
    9.7244   13.1733   23.5174 N   0  0  0  0  0  0  0  0  0  0  0  0
   11.1465   12.8976   23.4924 C   0  0  0  0  0  0  0  0  0  0  0  0
   11.8966   14.2265   23.4676 C   0  0  0  0  0  0  0  0  0  0  0  0
   11.5619   14.9683   22.2747 N   0  0  0  0  0  0  0  0  0  0  0  0
   12.5340   15.8612   21.7190 C   0  0  0  0  0  0  0  0  0  0  0  0
   10.2835   14.9486   21.7478 C   0  0  0  0  0  0  0  0  0  0  0  0
    9.9646   15.6298   20.7728 O   0  0  0  0  0  0  0  0  0  0  0  0
    9.2435   14.0460   22.4184 C   0  0  0  0  0  0  0  0  0  0  0  0
    8.9435   10.9087   24.2458 C   0  0  0  0  0  0  0  0  0  0  0  0
    8.0774   10.1184   24.9533 N   0  0  0  0  0  0  0  0  0  0  0  0
    6.4822   12.1231   28.6757 C   0  0  0  0  0  0  0  0  0  0  0  0
  1  2  1  0
  2  3  1  0
  3  4  2  0
  4  5  1  0
  5  6  2  0
  6  7  1  0
  7  8  1  0
  8  9  1  0
  9 10  1  0
 10 11  2  0
 11 12  1  0
 12 13  2  0
 13 14  1  0
 14 15  1  0
 15 16  1  0
 16 17  1  0
 17 18  1  0
 17 19  1  0
 19 20  2  0
 19 21  1  0
 13 22  1  0
 22 23  2  0
  7 24  2  0
 24  3  1  0
 23 10  1  0
 21 14  1  0
M  END
>  <distance_score>  (59) 
1.506233

>  <ref_pdb>  (59) 
A0310a

>  <ref_mols>  (59) 
A0528a,A0365a

>  <alias>  (59) 
None

>  <original SMILES>  (59) 
CSc1cccc(CNc2ccc(N3CCN(C)C(=O)C3)cn2)c1

>  <inchikey>  (59) 
UXHPYTOICLLREQ-UHFFFAOYSA-N

>  <exports>  (59) 
['/opt/xchem-fragalysis-2/maxwin/2A_HIPPO/hippo/A71EV2A_10_recipes/Recipe_1LPUPHX_poses.sdf', '/opt/xchem-fragalysis-2/maxwin/2A_HIPPO/hippo/A71EV2A_10_recipes/Recipe_1LPVPY0_poses.sdf']

>  <original ID>  (59) 
UXHPYTOICLLREQ-UHFFFAOYSA-N

>  <energy_score>  (59) 
-31.717192

>  <tags>  (59) 
[]

>  <HIPPO ID>  (59) 
48908

>  <name>  (59) 
UXHPYTOICLLREQ-UHFFFAOYSA-N

$$$$
FTYPJRBQIVHPKF-SFHVURJKSA-N
     RDKit          3D

 25 27  0  0  0  0  0  0  0  0999 V2000
    9.3720   14.0314   31.0219 C   0  0  0  0  0  0  0  0  0  0  0  0
    7.9179   14.2400   29.9587 S   0  0  0  0  0  0  0  0  0  0  0  0
    7.2549   12.5823   29.8823 C   0  0  0  0  0  0  0  0  0  0  0  0
    7.4219   11.6282   30.8882 C   0  0  0  0  0  0  0  0  0  0  0  0
    6.9091   10.3387   30.7340 C   0  0  0  0  0  0  0  0  0  0  0  0
    6.2196    9.9941   29.5733 C   0  0  0  0  0  0  0  0  0  0  0  0
    6.0071   10.9391   28.5596 C   0  0  0  0  0  0  0  0  0  0  0  0
    5.2579   10.5723   27.2913 C   0  0  2  0  0  0  0  0  0  0  0  0
    4.2253    9.6524   27.6082 O   0  0  0  0  0  0  0  0  0  0  0  0
    6.1095    9.9692   26.3139 N   0  0  0  0  0  0  0  0  0  0  0  0
    7.0006   10.6736   25.5416 C   0  0  0  0  0  0  0  0  0  0  0  0
    6.8276   12.0216   25.2893 C   0  0  0  0  0  0  0  0  0  0  0  0
    7.7419   12.7202   24.5192 C   0  0  0  0  0  0  0  0  0  0  0  0
    8.8412   12.0894   23.9578 C   0  0  0  0  0  0  0  0  0  0  0  0
    9.7935   12.8206   23.2281 N   0  0  0  0  0  0  0  0  0  0  0  0
   11.0452   13.0871   23.9594 C   0  0  0  0  0  0  0  0  0  0  0  0
   11.6972   14.4430   23.6487 C   0  0  0  0  0  0  0  0  0  0  0  0
   11.5816   14.8198   22.2591 N   0  0  0  0  0  0  0  0  0  0  0  0
   12.5172   15.7688   21.7239 C   0  0  0  0  0  0  0  0  0  0  0  0
   10.3256   14.7548   21.6623 C   0  0  0  0  0  0  0  0  0  0  0  0
   10.0272   15.3946   20.6540 O   0  0  0  0  0  0  0  0  0  0  0  0
    9.2752   13.9607   22.4314 C   0  0  0  0  0  0  0  0  0  0  0  0
    8.9129   10.7154   24.2098 C   0  0  0  0  0  0  0  0  0  0  0  0
    8.0364   10.0107   24.9954 N   0  0  0  0  0  0  0  0  0  0  0  0
    6.5246   12.2351   28.7373 C   0  0  0  0  0  0  0  0  0  0  0  0
  1  2  1  0
  2  3  1  0
  3  4  2  0
  4  5  1  0
  5  6  2  0
  6  7  1  0
  7  8  1  0
  8  9  1  1
  8 10  1  0
 10 11  1  0
 11 12  2  0
 12 13  1  0
 13 14  2  0
 14 15  1  0
 15 16  1  0
 16 17  1  0
 17 18  1  0
 18 19  1  0
 18 20  1  0
 20 21  2  0
 20 22  1  0
 14 23  1  0
 23 24  2  0
  7 25  2  0
 25  3  1  0
 24 11  1  0
 22 15  1  0
M  END
>  <distance_score>  (60) 
1.512748

>  <ref_pdb>  (60) 
A0310a

>  <ref_mols>  (60) 
A0528a,A0365a

>  <alias>  (60) 
None

>  <original SMILES>  (60) 
CSc1cccc([C@H](O)Nc2ccc(N3CCN(C)C(=O)C3)cn2)c1

>  <inchikey>  (60) 
FTYPJRBQIVHPKF-SFHVURJKSA-N

>  <exports>  (60) 
['/opt/xchem-fragalysis-2/maxwin/2A_HIPPO/hippo/A71EV2A_10_recipes/Recipe_1LPVPY0_poses.sdf']

>  <original ID>  (60) 
FTYPJRBQIVHPKF-SFHVURJKSA-N

>  <energy_score>  (60) 
-24.664697

>  <tags>  (60) 
[]

>  <HIPPO ID>  (60) 
49325

>  <name>  (60) 
FTYPJRBQIVHPKF-SFHVURJKSA-N

$$$$
FTYPJRBQIVHPKF-GOSISDBHSA-N
     RDKit          3D

 25 27  0  0  0  0  0  0  0  0999 V2000
    8.1442   14.8199   28.6727 C   0  0  0  0  0  0  0  0  0  0  0  0
    7.9242   14.0697   30.3087 S   0  0  0  0  0  0  0  0  0  0  0  0
    7.2004   12.4783   29.9328 C   0  0  0  0  0  0  0  0  0  0  0  0
    7.3690   11.4583   30.8747 C   0  0  0  0  0  0  0  0  0  0  0  0
    6.8547   10.1816   30.6450 C   0  0  0  0  0  0  0  0  0  0  0  0
    6.1839    9.9030   29.4554 C   0  0  0  0  0  0  0  0  0  0  0  0
    5.9983   10.9006   28.4892 C   0  0  0  0  0  0  0  0  0  0  0  0
    5.3046   10.5498   27.1890 C   0  0  1  0  0  0  0  0  0  0  0  0
    4.5862   11.6520   26.6764 O   0  0  0  0  0  0  0  0  0  0  0  0
    6.1868   10.0299   26.1805 N   0  0  0  0  0  0  0  0  0  0  0  0
    7.1574   10.7249   25.5050 C   0  0  0  0  0  0  0  0  0  0  0  0
    7.1759   12.1047   25.4557 C   0  0  0  0  0  0  0  0  0  0  0  0
    8.1288   12.7724   24.7190 C   0  0  0  0  0  0  0  0  0  0  0  0
    9.0489   12.0792   23.9532 C   0  0  0  0  0  0  0  0  0  0  0  0
    9.9992   12.7779   23.1790 N   0  0  0  0  0  0  0  0  0  0  0  0
   11.1229   13.2566   24.0008 C   0  0  0  0  0  0  0  0  0  0  0  0
   12.1542   13.9302   23.1125 C   0  0  0  0  0  0  0  0  0  0  0  0
   11.6113   15.0486   22.3826 N   0  0  0  0  0  0  0  0  0  0  0  0
   12.5625   15.8796   21.7037 C   0  0  0  0  0  0  0  0  0  0  0  0
   10.3819   14.8835   21.7485 C   0  0  0  0  0  0  0  0  0  0  0  0
   10.0234   15.5795   20.7997 O   0  0  0  0  0  0  0  0  0  0  0  0
    9.4020   13.9101   22.3939 C   0  0  0  0  0  0  0  0  0  0  0  0
    8.9684   10.6862   24.0411 C   0  0  0  0  0  0  0  0  0  0  0  0
    8.0593   10.0072   24.8104 N   0  0  0  0  0  0  0  0  0  0  0  0
    6.4801   12.1968   28.7678 C   0  0  0  0  0  0  0  0  0  0  0  0
  1  2  1  0
  2  3  1  0
  3  4  2  0
  4  5  1  0
  5  6  2  0
  6  7  1  0
  7  8  1  0
  8  9  1  6
  8 10  1  0
 10 11  1  0
 11 12  2  0
 12 13  1  0
 13 14  2  0
 14 15  1  0
 15 16  1  0
 16 17  1  0
 17 18  1  0
 18 19  1  0
 18 20  1  0
 20 21  2  0
 20 22  1  0
 14 23  1  0
 23 24  2  0
  7 25  2  0
 25  3  1  0
 24 11  1  0
 22 15  1  0
M  END
>  <distance_score>  (61) 
1.376158

>  <ref_pdb>  (61) 
A0310a

>  <ref_mols>  (61) 
A0528a,A0365a

>  <alias>  (61) 
None

>  <original SMILES>  (61) 
CSc1cccc([C@@H](O)Nc2ccc(N3CCN(C)C(=O)C3)cn2)c1

>  <inchikey>  (61) 
FTYPJRBQIVHPKF-GOSISDBHSA-N

>  <exports>  (61) 
['/opt/xchem-fragalysis-2/maxwin/2A_HIPPO/hippo/A71EV2A_10_recipes/Recipe_1LPVPY0_poses.sdf']

>  <original ID>  (61) 
FTYPJRBQIVHPKF-GOSISDBHSA-N

>  <energy_score>  (61) 
-32.190202

>  <tags>  (61) 
[]

>  <HIPPO ID>  (61) 
49326

>  <name>  (61) 
FTYPJRBQIVHPKF-GOSISDBHSA-N

$$$$
FCYZMQLRDGKZHO-INIZCTEOSA-N
     RDKit          3D

 23 25  0  0  0  0  0  0  0  0999 V2000
    9.2021   10.1318   23.9069 C   0  0  0  0  0  0  0  0  0  0  0  0
    8.1747   10.6758   24.7464 N   0  0  0  0  0  0  0  0  0  0  0  0
    7.7112    9.9033   25.7305 N   0  0  0  0  0  0  0  0  0  0  0  0
    6.8050   10.6605   26.3464 C   0  0  0  0  0  0  0  0  0  0  0  0
    6.2076   10.2763   27.6508 C   0  0  0  0  0  0  0  0  0  0  0  0
    5.9993   11.5028   28.5611 C   0  0  0  0  0  0  0  0  0  0  0  0
    5.2510   11.0765   29.8025 C   0  0  0  0  0  0  0  0  0  0  0  0
    4.0592   10.3481   29.5313 O   0  0  0  0  0  0  0  0  0  0  0  0
    3.7865   10.0971   28.1607 C   0  0  0  0  0  0  0  0  0  0  0  0
    4.9590    9.4310   27.4862 C   0  0  0  0  0  0  0  0  0  0  0  0
    6.5920   11.8573   25.6739 C   0  0  0  0  0  0  0  0  0  0  0  0
    7.6067   11.9175   24.7614 C   0  0  0  0  0  0  0  0  0  0  0  0
    7.9516   13.1088   24.0896 C   0  0  0  0  0  0  0  0  0  0  0  0
    7.5076   14.2124   24.3762 O   0  0  0  0  0  0  0  0  0  0  0  0
    8.8890   12.8480   23.1639 O   0  0  0  0  0  0  0  0  0  0  0  0
    9.4478   14.0035   22.5622 C   0  0  0  0  0  0  0  0  0  0  0  0
   10.7138   14.4074   23.2961 C   0  0  2  0  0  0  0  0  0  0  0  0
   10.5737   14.7009   24.8225 C   0  0  0  0  0  0  0  0  0  0  0  0
   11.4263   15.5260   22.5138 C   0  0  0  0  0  0  0  0  0  0  0  0
   12.8062   15.2238   22.6765 N   0  0  0  0  0  0  0  0  0  0  0  0
   12.9372   14.1088   23.4670 C   0  0  0  0  0  0  0  0  0  0  0  0
   13.8204   13.8646   24.2635 O   0  0  0  0  0  0  0  0  0  0  0  0
   11.7354   13.2823   23.2193 C   0  0  0  0  0  0  0  0  0  0  0  0
  1  2  1  0
  2  3  1  0
  3  4  2  0
  4  5  1  0
  5  6  1  0
  6  7  1  0
  7  8  1  0
  8  9  1  0
  9 10  1  0
  4 11  1  0
 11 12  2  0
 12 13  1  0
 13 14  2  0
 13 15  1  0
 15 16  1  0
 17 16  1  0
 17 18  1  1
 17 19  1  0
 19 20  1  0
 20 21  1  0
 21 22  2  0
 21 23  1  0
 12  2  1  0
 23 17  1  0
 10  5  1  0
M  END
>  <distance_score>  (62) 
2.246077

>  <ref_pdb>  (62) 
A0310a

>  <ref_mols>  (62) 
A0528a,A0365a

>  <alias>  (62) 
None

>  <original SMILES>  (62) 
Cn1nc(C2CCOCC2)cc1C(=O)OC[C@]1(C)CNC(=O)C1

>  <inchikey>  (62) 
FCYZMQLRDGKZHO-INIZCTEOSA-N

>  <exports>  (62) 
['/opt/xchem-fragalysis-2/maxwin/2A_HIPPO/hippo/A71EV2A_10_recipes/Recipe_1LPVPY0_poses.sdf']

>  <original ID>  (62) 
FCYZMQLRDGKZHO-INIZCTEOSA-N

>  <energy_score>  (62) 
-32.48325

>  <tags>  (62) 
[]

>  <HIPPO ID>  (62) 
53522

>  <name>  (62) 
FCYZMQLRDGKZHO-INIZCTEOSA-N

$$$$
FCYZMQLRDGKZHO-MRXNPFEDSA-N
     RDKit          3D

 23 25  0  0  0  0  0  0  0  0999 V2000
    9.2656   10.2098   23.9384 C   0  0  0  0  0  0  0  0  0  0  0  0
    8.2250   10.8507   24.6859 N   0  0  0  0  0  0  0  0  0  0  0  0
    7.4886   10.1168   25.5449 N   0  0  0  0  0  0  0  0  0  0  0  0
    6.5529   10.9784   25.9580 C   0  0  0  0  0  0  0  0  0  0  0  0
    5.5538   10.7680   27.0248 C   0  0  0  0  0  0  0  0  0  0  0  0
    5.2564    9.3308   27.3432 C   0  0  0  0  0  0  0  0  0  0  0  0
    4.1676    9.2104   28.3858 C   0  0  0  0  0  0  0  0  0  0  0  0
    4.0195   10.4036   29.1556 O   0  0  0  0  0  0  0  0  0  0  0  0
    5.2759   10.9619   29.5214 C   0  0  0  0  0  0  0  0  0  0  0  0
    5.9222   11.5659   28.2925 C   0  0  0  0  0  0  0  0  0  0  0  0
    6.6620   12.2146   25.3470 C   0  0  0  0  0  0  0  0  0  0  0  0
    7.8596   12.1612   24.7049 C   0  0  0  0  0  0  0  0  0  0  0  0
    8.4946   13.3472   24.3092 C   0  0  0  0  0  0  0  0  0  0  0  0
    8.3281   14.4010   24.9178 O   0  0  0  0  0  0  0  0  0  0  0  0
    9.2199   13.1862   23.1745 O   0  0  0  0  0  0  0  0  0  0  0  0
    9.7194   14.4643   22.8058 C   0  0  0  0  0  0  0  0  0  0  0  0
   10.8878   14.4879   21.8362 C   0  0  1  0  0  0  0  0  0  0  0  0
   10.3822   14.3747   20.4187 C   0  0  0  0  0  0  0  0  0  0  0  0
   11.6944   15.7735   21.9486 C   0  0  0  0  0  0  0  0  0  0  0  0
   12.3388   15.6162   23.1958 N   0  0  0  0  0  0  0  0  0  0  0  0
   12.6393   14.2906   23.3988 C   0  0  0  0  0  0  0  0  0  0  0  0
   13.3532   13.8623   24.2845 O   0  0  0  0  0  0  0  0  0  0  0  0
   11.9227   13.4862   22.3304 C   0  0  0  0  0  0  0  0  0  0  0  0
  1  2  1  0
  2  3  1  0
  3  4  2  0
  4  5  1  0
  5  6  1  0
  6  7  1  0
  7  8  1  0
  8  9  1  0
  9 10  1  0
  4 11  1  0
 11 12  2  0
 12 13  1  0
 13 14  2  0
 13 15  1  0
 15 16  1  0
 17 16  1  0
 17 18  1  6
 17 19  1  0
 19 20  1  0
 20 21  1  0
 21 22  2  0
 21 23  1  0
 12  2  1  0
 23 17  1  0
 10  5  1  0
M  END
>  <distance_score>  (63) 
2.247641

>  <ref_pdb>  (63) 
A0310a

>  <ref_mols>  (63) 
A0528a,A0365a

>  <alias>  (63) 
None

>  <original SMILES>  (63) 
Cn1nc(C2CCOCC2)cc1C(=O)OC[C@@]1(C)CNC(=O)C1

>  <inchikey>  (63) 
FCYZMQLRDGKZHO-MRXNPFEDSA-N

>  <exports>  (63) 
['/opt/xchem-fragalysis-2/maxwin/2A_HIPPO/hippo/A71EV2A_10_recipes/Recipe_1LPVPY0_poses.sdf']

>  <original ID>  (63) 
FCYZMQLRDGKZHO-MRXNPFEDSA-N

>  <energy_score>  (63) 
-18.977963

>  <tags>  (63) 
[]

>  <HIPPO ID>  (63) 
53523

>  <name>  (63) 
FCYZMQLRDGKZHO-MRXNPFEDSA-N

$$$$
JFUVBYXPIXQBIY-LBPRGKRZSA-N
     RDKit          3D

 25 28  0  0  0  0  0  0  0  0999 V2000
    8.9795   10.1087   24.0774 C   0  0  0  0  0  0  0  0  0  0  0  0
    7.9599   10.6094   24.9531 N   0  0  0  0  0  0  0  0  0  0  0  0
    7.5254    9.7993   25.9099 N   0  0  0  0  0  0  0  0  0  0  0  0
    6.6650   10.5314   26.6187 C   0  0  0  0  0  0  0  0  0  0  0  0
    6.0956   10.0343   27.9061 C   0  0  0  0  0  0  0  0  0  0  0  0
    5.8738   11.1559   28.9371 C   0  0  0  0  0  0  0  0  0  0  0  0
    4.5547   11.8909   28.7560 C   0  0  0  0  0  0  0  0  0  0  0  0
    3.5933   11.1431   28.0170 O   0  0  0  0  0  0  0  0  0  0  0  0
    3.6470    9.7560   28.3252 C   0  0  0  0  0  0  0  0  0  0  0  0
    4.8711    9.1581   27.6794 C   0  0  0  0  0  0  0  0  0  0  0  0
    6.4749   11.7822   26.0482 C   0  0  0  0  0  0  0  0  0  0  0  0
    7.4115   11.8507   25.0595 C   0  0  0  0  0  0  0  0  0  0  0  0
    7.7312   13.0382   24.3863 C   0  0  0  0  0  0  0  0  0  0  0  0
    7.6081   14.1605   24.8614 O   0  0  0  0  0  0  0  0  0  0  0  0
    8.2513   12.7251   23.1810 O   0  0  0  0  0  0  0  0  0  0  0  0
    8.7107   13.8760   22.5279 C   0  0  0  0  0  0  0  0  0  0  0  0
   10.0810   14.2194   23.0122 C   0  0  1  0  0  0  0  0  0  0  0  0
   10.6345   13.8365   24.3881 C   0  0  0  0  0  0  0  0  0  0  0  0
   12.1080   14.0688   24.1674 C   0  0  0  0  0  0  0  0  0  0  0  0
   12.9547   14.2578   25.0229 O   0  0  0  0  0  0  0  0  0  0  0  0
   12.3170   14.1253   22.7870 N   0  0  0  0  0  0  0  0  0  0  0  0
   12.8213   15.3852   22.3843 C   0  0  0  0  0  0  0  0  0  0  0  0
   12.9818   15.8148   21.0039 C   0  0  0  0  0  0  0  0  0  0  0  0
   11.9314   16.4640   21.8459 C   0  0  0  0  0  0  0  0  0  0  0  0
   11.1388   13.6398   22.1360 C   0  0  0  0  0  0  0  0  0  0  0  0
  1  2  1  0
  2  3  1  0
  3  4  2  0
  4  5  1  0
  5  6  1  0
  6  7  1  0
  7  8  1  0
  8  9  1  0
  9 10  1  0
  4 11  1  0
 11 12  2  0
 12 13  1  0
 13 14  2  0
 13 15  1  0
 15 16  1  0
 17 16  1  6
 17 18  1  0
 18 19  1  0
 19 20  2  0
 19 21  1  0
 21 22  1  0
 22 23  1  0
 23 24  1  0
 21 25  1  0
 12  2  1  0
 25 17  1  0
 10  5  1  0
 24 22  1  0
M  END
>  <distance_score>  (64) 
2.49073

>  <ref_pdb>  (64) 
A0310a

>  <ref_mols>  (64) 
A0528a,A0365a

>  <alias>  (64) 
None

>  <original SMILES>  (64) 
Cn1nc(C2CCOCC2)cc1C(=O)OC[C@H]1CC(=O)N(C2CC2)C1

>  <inchikey>  (64) 
JFUVBYXPIXQBIY-LBPRGKRZSA-N

>  <exports>  (64) 
['/opt/xchem-fragalysis-2/maxwin/2A_HIPPO/hippo/A71EV2A_10_recipes/Recipe_1LPVPY0_poses.sdf']

>  <original ID>  (64) 
JFUVBYXPIXQBIY-LBPRGKRZSA-N

>  <energy_score>  (64) 
-5.949567

>  <tags>  (64) 
[]

>  <HIPPO ID>  (64) 
54238

>  <name>  (64) 
JFUVBYXPIXQBIY-LBPRGKRZSA-N

$$$$
XTQDUNSPBPDCKJ-UHFFFAOYSA-N
     RDKit          3D

 20 22  0  0  0  0  0  0  0  0999 V2000
    9.1380   10.6709   32.0401 N   0  0  0  0  0  0  0  0  0  0  0  0
    7.7824   11.1836   32.1738 C   0  0  0  0  0  0  0  0  0  0  0  0
    7.0983   11.3108   30.8353 C   0  0  0  0  0  0  0  0  0  0  0  0
    6.1582   10.3565   30.4134 C   0  0  0  0  0  0  0  0  0  0  0  0
    5.4830   10.5108   29.1980 C   0  0  0  0  0  0  0  0  0  0  0  0
    5.7718   11.6046   28.3792 C   0  0  0  0  0  0  0  0  0  0  0  0
    4.9695   11.8485   27.1536 C   0  0  0  0  0  0  0  0  0  0  0  0
    3.7446   11.8226   27.2295 O   0  0  0  0  0  0  0  0  0  0  0  0
    5.6358   12.2577   26.0227 N   0  0  0  0  0  0  0  0  0  0  0  0
    6.7663   11.6426   25.5110 C   0  0  0  0  0  0  0  0  0  0  0  0
    7.1537   10.3453   25.7396 C   0  0  0  0  0  0  0  0  0  0  0  0
    8.2158   10.0708   24.9214 N   0  0  0  0  0  0  0  0  0  0  0  0
    8.6061   11.2116   24.2682 C   0  0  0  0  0  0  0  0  0  0  0  0
    9.6927   11.4238   23.4220 C   0  0  0  0  0  0  0  0  0  0  0  0
    9.8484   12.6991   22.8872 C   0  0  0  0  0  0  0  0  0  0  0  0
    8.8965   13.6855   23.1058 C   0  0  0  0  0  0  0  0  0  0  0  0
    7.7991   13.4522   23.9406 C   0  0  0  0  0  0  0  0  0  0  0  0
    7.6698   12.1989   24.5652 C   0  0  0  0  0  0  0  0  0  0  0  0
    6.7251   12.5492   28.7782 C   0  0  0  0  0  0  0  0  0  0  0  0
    7.3809   12.4035   30.0019 C   0  0  0  0  0  0  0  0  0  0  0  0
  1  2  1  0
  2  3  1  0
  3  4  2  0
  4  5  1  0
  5  6  2  0
  6  7  1  0
  7  8  2  0
  7  9  1  0
  9 10  1  0
 10 11  2  0
 11 12  1  0
 12 13  1  0
 13 14  2  0
 14 15  1  0
 15 16  2  0
 16 17  1  0
 17 18  2  0
  6 19  1  0
 19 20  2  0
 20  3  1  0
 18 10  1  0
 18 13  1  0
M  END
>  <distance_score>  (65) 
1.866367

>  <ref_pdb>  (65) 
A0310a

>  <ref_mols>  (65) 
A0566a,A0365a

>  <alias>  (65) 
None

>  <original SMILES>  (65) 
NCc1ccc(C(=O)Nc2c[nH]c3ccccc23)cc1

>  <inchikey>  (65) 
XTQDUNSPBPDCKJ-UHFFFAOYSA-N

>  <exports>  (65) 
['/opt/xchem-fragalysis-2/maxwin/2A_HIPPO/hippo/A71EV2A_10_recipes/Recipe_1LPUPHX_poses.sdf', '/opt/xchem-fragalysis-2/maxwin/2A_HIPPO/hippo/A71EV2A_10_recipes/Recipe_1LPVPY0_poses.sdf']

>  <original ID>  (65) 
XTQDUNSPBPDCKJ-UHFFFAOYSA-N

>  <energy_score>  (65) 
-8.044358

>  <tags>  (65) 
['Syndirella scaffold']

>  <HIPPO ID>  (65) 
62373

>  <name>  (65) 
XTQDUNSPBPDCKJ-UHFFFAOYSA-N

$$$$
GGEJYRSVVUPGRE-NSHDSACASA-N
     RDKit          3D

 21 23  0  0  0  0  0  0  0  0999 V2000
    8.0429   10.1006   32.9735 C   0  0  0  0  0  0  0  0  0  0  0  0
    7.5682   11.3866   32.2923 C   0  0  2  0  0  0  0  0  0  0  0  0
    6.5931   12.0727   33.1358 N   0  0  0  0  0  0  0  0  0  0  0  0
    7.0047   11.2059   30.8920 C   0  0  0  0  0  0  0  0  0  0  0  0
    6.4896    9.9883   30.4118 C   0  0  0  0  0  0  0  0  0  0  0  0
    6.0289    9.8671   29.0939 C   0  0  0  0  0  0  0  0  0  0  0  0
    6.0625   10.9782   28.2545 C   0  0  0  0  0  0  0  0  0  0  0  0
    5.7044   10.9075   26.8249 C   0  0  0  0  0  0  0  0  0  0  0  0
    4.8612   11.6903   26.4070 O   0  0  0  0  0  0  0  0  0  0  0  0
    6.4161    9.9888   26.0804 N   0  0  0  0  0  0  0  0  0  0  0  0
    7.4144   10.3748   25.1844 C   0  0  0  0  0  0  0  0  0  0  0  0
    8.2854    9.4779   24.6123 C   0  0  0  0  0  0  0  0  0  0  0  0
    9.2071   10.1461   23.8577 N   0  0  0  0  0  0  0  0  0  0  0  0
    8.8977   11.4789   23.8495 C   0  0  0  0  0  0  0  0  0  0  0  0
    9.5206   12.5213   23.1625 C   0  0  0  0  0  0  0  0  0  0  0  0
    8.8799   13.7533   23.1697 C   0  0  0  0  0  0  0  0  0  0  0  0
    7.7062   13.9337   23.8930 C   0  0  0  0  0  0  0  0  0  0  0  0
    7.1586   12.9120   24.6608 C   0  0  0  0  0  0  0  0  0  0  0  0
    7.7471   11.6432   24.6304 C   0  0  0  0  0  0  0  0  0  0  0  0
    6.5014   12.2157   28.7354 C   0  0  0  0  0  0  0  0  0  0  0  0
    6.9731   12.3247   30.0417 C   0  0  0  0  0  0  0  0  0  0  0  0
  2  1  1  1
  2  3  1  0
  2  4  1  0
  4  5  2  0
  5  6  1  0
  6  7  2  0
  7  8  1  0
  8  9  2  0
  8 10  1  0
 10 11  1  0
 11 12  2  0
 12 13  1  0
 13 14  1  0
 14 15  2  0
 15 16  1  0
 16 17  2  0
 17 18  1  0
 18 19  2  0
  7 20  1  0
 20 21  2  0
 21  4  1  0
 19 11  1  0
 19 14  1  0
M  END
>  <distance_score>  (66) 
1.791077

>  <ref_pdb>  (66) 
A0310a

>  <ref_mols>  (66) 
A0566a,A0365a

>  <alias>  (66) 
None

>  <original SMILES>  (66) 
C[C@H](N)c1ccc(C(=O)Nc2c[nH]c3ccccc23)cc1

>  <inchikey>  (66) 
GGEJYRSVVUPGRE-NSHDSACASA-N

>  <exports>  (66) 
['/opt/xchem-fragalysis-2/maxwin/2A_HIPPO/hippo/A71EV2A_10_recipes/Recipe_1LPVPY0_poses.sdf']

>  <original ID>  (66) 
GGEJYRSVVUPGRE-NSHDSACASA-N

>  <energy_score>  (66) 
-0.527676

>  <tags>  (66) 
[]

>  <HIPPO ID>  (66) 
62385

>  <name>  (66) 
GGEJYRSVVUPGRE-NSHDSACASA-N

$$$$
GGEJYRSVVUPGRE-LLVKDONJSA-N
     RDKit          3D

 21 23  0  0  0  0  0  0  0  0999 V2000
    9.5104   12.1829   32.0498 C   0  0  0  0  0  0  0  0  0  0  0  0
    8.1101   11.6143   32.2887 C   0  0  1  0  0  0  0  0  0  0  0  0
    7.3586   12.4971   33.1775 N   0  0  0  0  0  0  0  0  0  0  0  0
    7.3520   11.3840   30.9961 C   0  0  0  0  0  0  0  0  0  0  0  0
    6.8342   10.1084   30.6963 C   0  0  0  0  0  0  0  0  0  0  0  0
    6.1276    9.8790   29.5126 C   0  0  0  0  0  0  0  0  0  0  0  0
    5.9316   10.9373   28.6355 C   0  0  0  0  0  0  0  0  0  0  0  0
    5.2510   10.7548   27.3454 C   0  0  0  0  0  0  0  0  0  0  0  0
    4.1748   11.3146   27.1729 O   0  0  0  0  0  0  0  0  0  0  0  0
    6.0246   10.1576   26.3665 N   0  0  0  0  0  0  0  0  0  0  0  0
    6.7811   11.0216   25.5771 C   0  0  0  0  0  0  0  0  0  0  0  0
    6.5389   12.3674   25.4577 C   0  0  0  0  0  0  0  0  0  0  0  0
    7.4992   12.9216   24.6746 N   0  0  0  0  0  0  0  0  0  0  0  0
    8.3439   11.9528   24.2284 C   0  0  0  0  0  0  0  0  0  0  0  0
    9.4168   12.0812   23.3666 C   0  0  0  0  0  0  0  0  0  0  0  0
    9.9893   10.8897   22.9545 C   0  0  0  0  0  0  0  0  0  0  0  0
    9.5761    9.6477   23.4068 C   0  0  0  0  0  0  0  0  0  0  0  0
    8.5324    9.5647   24.3168 C   0  0  0  0  0  0  0  0  0  0  0  0
    7.8917   10.7366   24.7424 C   0  0  0  0  0  0  0  0  0  0  0  0
    6.4011   12.2208   28.9351 C   0  0  0  0  0  0  0  0  0  0  0  0
    7.1184   12.4402   30.1035 C   0  0  0  0  0  0  0  0  0  0  0  0
  2  1  1  6
  2  3  1  0
  2  4  1  0
  4  5  2  0
  5  6  1  0
  6  7  2  0
  7  8  1  0
  8  9  2  0
  8 10  1  0
 10 11  1  0
 11 12  2  0
 12 13  1  0
 13 14  1  0
 14 15  2  0
 15 16  1  0
 16 17  2  0
 17 18  1  0
 18 19  2  0
  7 20  1  0
 20 21  2  0
 21  4  1  0
 19 11  1  0
 19 14  1  0
M  END
>  <distance_score>  (67) 
1.998058

>  <ref_pdb>  (67) 
A0310a

>  <ref_mols>  (67) 
A0566a,A0365a

>  <alias>  (67) 
None

>  <original SMILES>  (67) 
C[C@@H](N)c1ccc(C(=O)Nc2c[nH]c3ccccc23)cc1

>  <inchikey>  (67) 
GGEJYRSVVUPGRE-LLVKDONJSA-N

>  <exports>  (67) 
['/opt/xchem-fragalysis-2/maxwin/2A_HIPPO/hippo/A71EV2A_10_recipes/Recipe_1LPVPY0_poses.sdf']

>  <original ID>  (67) 
GGEJYRSVVUPGRE-LLVKDONJSA-N

>  <energy_score>  (67) 
-5.001074

>  <tags>  (67) 
[]

>  <HIPPO ID>  (67) 
62386

>  <name>  (67) 
GGEJYRSVVUPGRE-LLVKDONJSA-N

$$$$
AIYSUCBVHPMTCC-UHFFFAOYSA-N
     RDKit          3D

 21 23  0  0  0  0  0  0  0  0999 V2000
    7.3210   12.7710   32.8564 N   0  0  0  0  0  0  0  0  0  0  0  0
    7.6847   11.5314   32.1834 C   0  0  0  0  0  0  0  0  0  0  0  0
    7.0814   11.4287   30.8021 C   0  0  0  0  0  0  0  0  0  0  0  0
    6.5518   10.2097   30.3425 C   0  0  0  0  0  0  0  0  0  0  0  0
    6.0751   10.0816   29.0321 C   0  0  0  0  0  0  0  0  0  0  0  0
    6.1264   11.1827   28.1760 C   0  0  0  0  0  0  0  0  0  0  0  0
    5.8141   11.0997   26.7331 C   0  0  0  0  0  0  0  0  0  0  0  0
    5.1368   11.9849   26.2281 O   0  0  0  0  0  0  0  0  0  0  0  0
    6.4040   10.0541   26.0619 N   0  0  0  0  0  0  0  0  0  0  0  0
    7.4468   10.2336   25.1563 C   0  0  0  0  0  0  0  0  0  0  0  0
    8.0588    9.1595   24.5733 C   0  0  0  0  0  0  0  0  0  0  0  0
    9.0775    9.5326   23.7696 N   0  0  0  0  0  0  0  0  0  0  0  0
    9.1319   10.8875   23.7870 C   0  0  0  0  0  0  0  0  0  0  0  0
   10.0230   11.6913   23.1040 C   0  0  0  0  0  0  0  0  0  0  0  0
    9.9249   13.0466   23.2630 C   0  0  0  0  0  0  0  0  0  0  0  0
   11.2089   14.1132   22.3960 Br  0  0  0  0  0  0  0  0  0  0  0  0
    8.9070   13.5651   24.0434 C   0  0  0  0  0  0  0  0  0  0  0  0
    7.9834   12.7476   24.7138 C   0  0  0  0  0  0  0  0  0  0  0  0
    8.1113   11.3638   24.6155 C   0  0  0  0  0  0  0  0  0  0  0  0
    6.6068   12.4142   28.6365 C   0  0  0  0  0  0  0  0  0  0  0  0
    7.0967   12.5302   29.9345 C   0  0  0  0  0  0  0  0  0  0  0  0
  1  2  1  0
  2  3  1  0
  3  4  2  0
  4  5  1  0
  5  6  2  0
  6  7  1  0
  7  8  2  0
  7  9  1  0
  9 10  1  0
 10 11  2  0
 11 12  1  0
 12 13  1  0
 13 14  2  0
 14 15  1  0
 15 16  1  0
 15 17  2  0
 17 18  1  0
 18 19  2  0
  6 20  1  0
 20 21  2  0
 21  3  1  0
 19 10  1  0
 19 13  1  0
M  END
>  <distance_score>  (68) 
1.327182

>  <ref_pdb>  (68) 
A0310a

>  <ref_mols>  (68) 
A0566a,A0365a

>  <alias>  (68) 
None

>  <original SMILES>  (68) 
NCc1ccc(C(=O)Nc2c[nH]c3cc(Br)ccc23)cc1

>  <inchikey>  (68) 
AIYSUCBVHPMTCC-UHFFFAOYSA-N

>  <exports>  (68) 
['/opt/xchem-fragalysis-2/maxwin/2A_HIPPO/hippo/A71EV2A_10_recipes/Recipe_1LPVPY0_poses.sdf']

>  <original ID>  (68) 
AIYSUCBVHPMTCC-UHFFFAOYSA-N

>  <energy_score>  (68) 
-1.651656

>  <tags>  (68) 
[]

>  <HIPPO ID>  (68) 
62423

>  <name>  (68) 
AIYSUCBVHPMTCC-UHFFFAOYSA-N

$$$$
WVPXHFKQVFBMQB-UHFFFAOYSA-N
     RDKit          3D

 21 23  0  0  0  0  0  0  0  0999 V2000
    6.2186   11.7776   33.1857 N   0  0  0  0  0  0  0  0  0  0  0  0
    7.2492   11.1864   32.3476 C   0  0  0  0  0  0  0  0  0  0  0  0
    6.8140   11.1106   30.9055 C   0  0  0  0  0  0  0  0  0  0  0  0
    6.3056    9.9155   30.3674 C   0  0  0  0  0  0  0  0  0  0  0  0
    5.9287    9.8372   29.0218 C   0  0  0  0  0  0  0  0  0  0  0  0
    6.0407   10.9709   28.2190 C   0  0  0  0  0  0  0  0  0  0  0  0
    5.7607   10.9566   26.7696 C   0  0  0  0  0  0  0  0  0  0  0  0
    4.9815   11.7944   26.3366 O   0  0  0  0  0  0  0  0  0  0  0  0
    6.4732   10.0275   26.0394 N   0  0  0  0  0  0  0  0  0  0  0  0
    7.4703   10.3981   25.1362 C   0  0  0  0  0  0  0  0  0  0  0  0
    8.3551    9.4905   24.6050 C   0  0  0  0  0  0  0  0  0  0  0  0
    9.2991   10.1434   23.8643 N   0  0  0  0  0  0  0  0  0  0  0  0
    8.9714   11.4708   23.7928 C   0  0  0  0  0  0  0  0  0  0  0  0
    9.5978   12.4937   23.0766 C   0  0  0  0  0  0  0  0  0  0  0  0
    8.8750   13.6669   22.9068 C   0  0  0  0  0  0  0  0  0  0  0  0
    7.6384   13.8056   23.5154 C   0  0  0  0  0  0  0  0  0  0  0  0
    6.8486   14.8252   23.1783 F   0  0  0  0  0  0  0  0  0  0  0  0
    7.1262   12.8695   24.3996 C   0  0  0  0  0  0  0  0  0  0  0  0
    7.7813   11.6402   24.5135 C   0  0  0  0  0  0  0  0  0  0  0  0
    6.4898   12.1835   28.7586 C   0  0  0  0  0  0  0  0  0  0  0  0
    6.8835   12.2501   30.0929 C   0  0  0  0  0  0  0  0  0  0  0  0
  1  2  1  0
  2  3  1  0
  3  4  2  0
  4  5  1  0
  5  6  2  0
  6  7  1  0
  7  8  2  0
  7  9  1  0
  9 10  1  0
 10 11  2  0
 11 12  1  0
 12 13  1  0
 13 14  2  0
 14 15  1  0
 15 16  2  0
 16 17  1  0
 16 18  1  0
 18 19  2  0
  6 20  1  0
 20 21  2  0
 21  3  1  0
 19 10  1  0
 19 13  1  0
M  END
>  <distance_score>  (69) 
1.469108

>  <ref_pdb>  (69) 
A0310a

>  <ref_mols>  (69) 
A0566a,A0365a

>  <alias>  (69) 
None

>  <original SMILES>  (69) 
NCc1ccc(C(=O)Nc2c[nH]c3ccc(F)cc23)cc1

>  <inchikey>  (69) 
WVPXHFKQVFBMQB-UHFFFAOYSA-N

>  <exports>  (69) 
['/opt/xchem-fragalysis-2/maxwin/2A_HIPPO/hippo/A71EV2A_10_recipes/Recipe_1LPVPY0_poses.sdf']

>  <original ID>  (69) 
WVPXHFKQVFBMQB-UHFFFAOYSA-N

>  <energy_score>  (69) 
-2.286236

>  <tags>  (69) 
[]

>  <HIPPO ID>  (69) 
62435

>  <name>  (69) 
WVPXHFKQVFBMQB-UHFFFAOYSA-N

$$$$
GIJQPOFELYYZHX-JTQLQIEISA-N
     RDKit          3D

 22 24  0  0  0  0  0  0  0  0999 V2000
    6.8786   12.4302   33.0560 C   0  0  0  0  0  0  0  0  0  0  0  0
    7.4601   11.2597   32.2600 C   0  0  2  0  0  0  0  0  0  0  0  0
    8.9229   11.3458   32.2373 N   0  0  0  0  0  0  0  0  0  0  0  0
    6.9285   11.1868   30.8408 C   0  0  0  0  0  0  0  0  0  0  0  0
    6.3940    9.9847   30.3397 C   0  0  0  0  0  0  0  0  0  0  0  0
    5.9724    9.8817   29.0082 C   0  0  0  0  0  0  0  0  0  0  0  0
    6.0751   10.9946   28.1757 C   0  0  0  0  0  0  0  0  0  0  0  0
    5.7744   10.9473   26.7320 C   0  0  0  0  0  0  0  0  0  0  0  0
    4.9889   11.7741   26.2895 O   0  0  0  0  0  0  0  0  0  0  0  0
    6.4787   10.0037   26.0115 N   0  0  0  0  0  0  0  0  0  0  0  0
    7.4928   10.3552   25.1190 C   0  0  0  0  0  0  0  0  0  0  0  0
    8.3623    9.4333   24.5884 C   0  0  0  0  0  0  0  0  0  0  0  0
    9.3231   10.0671   23.8537 N   0  0  0  0  0  0  0  0  0  0  0  0
    9.0267   11.4015   23.7911 C   0  0  0  0  0  0  0  0  0  0  0  0
    9.6828   12.4152   23.0894 C   0  0  0  0  0  0  0  0  0  0  0  0
    8.9900   13.6055   22.9255 C   0  0  0  0  0  0  0  0  0  0  0  0
    7.7504   13.7618   23.5219 C   0  0  0  0  0  0  0  0  0  0  0  0
    6.9850   14.7941   23.1784 F   0  0  0  0  0  0  0  0  0  0  0  0
    7.2056   12.8327   24.3928 C   0  0  0  0  0  0  0  0  0  0  0  0
    7.8349   11.5916   24.5041 C   0  0  0  0  0  0  0  0  0  0  0  0
    6.5557   12.2118   28.6715 C   0  0  0  0  0  0  0  0  0  0  0  0
    6.9955   12.3007   29.9898 C   0  0  0  0  0  0  0  0  0  0  0  0
  2  1  1  6
  2  3  1  0
  2  4  1  0
  4  5  2  0
  5  6  1  0
  6  7  2  0
  7  8  1  0
  8  9  2  0
  8 10  1  0
 10 11  1  0
 11 12  2  0
 12 13  1  0
 13 14  1  0
 14 15  2  0
 15 16  1  0
 16 17  2  0
 17 18  1  0
 17 19  1  0
 19 20  2  0
  7 21  1  0
 21 22  2  0
 22  4  1  0
 20 11  1  0
 20 14  1  0
M  END
>  <distance_score>  (70) 
1.426756

>  <ref_pdb>  (70) 
A0310a

>  <ref_mols>  (70) 
A0566a,A0365a

>  <alias>  (70) 
None

>  <original SMILES>  (70) 
C[C@H](N)c1ccc(C(=O)Nc2c[nH]c3ccc(F)cc23)cc1

>  <inchikey>  (70) 
GIJQPOFELYYZHX-JTQLQIEISA-N

>  <exports>  (70) 
['/opt/xchem-fragalysis-2/maxwin/2A_HIPPO/hippo/A71EV2A_10_recipes/Recipe_1LPVPY0_poses.sdf']

>  <original ID>  (70) 
GIJQPOFELYYZHX-JTQLQIEISA-N

>  <energy_score>  (70) 
-1.73778

>  <tags>  (70) 
[]

>  <HIPPO ID>  (70) 
63026

>  <name>  (70) 
GIJQPOFELYYZHX-JTQLQIEISA-N

$$$$
GIJQPOFELYYZHX-SNVBAGLBSA-N
     RDKit          3D

 22 24  0  0  0  0  0  0  0  0999 V2000
    7.4721   11.2483   33.5052 C   0  0  0  0  0  0  0  0  0  0  0  0
    8.2260   11.5882   32.2202 C   0  0  1  0  0  0  0  0  0  0  0  0
    9.4852   10.8459   32.1289 N   0  0  0  0  0  0  0  0  0  0  0  0
    7.3841   11.3437   30.9857 C   0  0  0  0  0  0  0  0  0  0  0  0
    6.8535   10.0731   30.6826 C   0  0  0  0  0  0  0  0  0  0  0  0
    6.1119    9.8630   29.5187 C   0  0  0  0  0  0  0  0  0  0  0  0
    5.8996   10.9346   28.6630 C   0  0  0  0  0  0  0  0  0  0  0  0
    5.2064   10.7637   27.3796 C   0  0  0  0  0  0  0  0  0  0  0  0
    4.1136   11.2973   27.2319 O   0  0  0  0  0  0  0  0  0  0  0  0
    5.9890   10.2131   26.3798 N   0  0  0  0  0  0  0  0  0  0  0  0
    6.6865   11.1294   25.5949 C   0  0  0  0  0  0  0  0  0  0  0  0
    6.3601   12.4576   25.4875 C   0  0  0  0  0  0  0  0  0  0  0  0
    7.2850   13.0798   24.7142 N   0  0  0  0  0  0  0  0  0  0  0  0
    8.2065   12.1769   24.2802 C   0  0  0  0  0  0  0  0  0  0  0  0
    9.3019   12.3980   23.4608 C   0  0  0  0  0  0  0  0  0  0  0  0
    9.9776   11.2625   23.0591 C   0  0  0  0  0  0  0  0  0  0  0  0
    9.5866    9.9992   23.4707 C   0  0  0  0  0  0  0  0  0  0  0  0
   10.2337    8.9293   23.0220 F   0  0  0  0  0  0  0  0  0  0  0  0
    8.5308    9.8031   24.3429 C   0  0  0  0  0  0  0  0  0  0  0  0
    7.8179   10.9256   24.7677 C   0  0  0  0  0  0  0  0  0  0  0  0
    6.3818   12.2129   28.9655 C   0  0  0  0  0  0  0  0  0  0  0  0
    7.1328   12.4129   30.1156 C   0  0  0  0  0  0  0  0  0  0  0  0
  2  1  1  1
  2  3  1  0
  2  4  1  0
  4  5  2  0
  5  6  1  0
  6  7  2  0
  7  8  1  0
  8  9  2  0
  8 10  1  0
 10 11  1  0
 11 12  2  0
 12 13  1  0
 13 14  1  0
 14 15  2  0
 15 16  1  0
 16 17  2  0
 17 18  1  0
 17 19  1  0
 19 20  2  0
  7 21  1  0
 21 22  2  0
 22  4  1  0
 20 11  1  0
 20 14  1  0
M  END
>  <distance_score>  (71) 
2.068554

>  <ref_pdb>  (71) 
A0310a

>  <ref_mols>  (71) 
A0566a,A0365a

>  <alias>  (71) 
None

>  <original SMILES>  (71) 
C[C@@H](N)c1ccc(C(=O)Nc2c[nH]c3ccc(F)cc23)cc1

>  <inchikey>  (71) 
GIJQPOFELYYZHX-SNVBAGLBSA-N

>  <exports>  (71) 
['/opt/xchem-fragalysis-2/maxwin/2A_HIPPO/hippo/A71EV2A_10_recipes/Recipe_1LPVPY0_poses.sdf']

>  <original ID>  (71) 
GIJQPOFELYYZHX-SNVBAGLBSA-N

>  <energy_score>  (71) 
-1.326681

>  <tags>  (71) 
[]

>  <HIPPO ID>  (71) 
63027

>  <name>  (71) 
GIJQPOFELYYZHX-SNVBAGLBSA-N

$$$$
PIVUSRIEARQIKL-JTQLQIEISA-N
     RDKit          3D

 22 24  0  0  0  0  0  0  0  0999 V2000
    7.4643   12.9203   32.8842 C   0  0  0  0  0  0  0  0  0  0  0  0
    7.8383   11.6461   32.1246 C   0  0  2  0  0  0  0  0  0  0  0  0
    9.2941   11.5729   31.9899 N   0  0  0  0  0  0  0  0  0  0  0  0
    7.1801   11.5277   30.7609 C   0  0  0  0  0  0  0  0  0  0  0  0
    6.6611   10.2890   30.3353 C   0  0  0  0  0  0  0  0  0  0  0  0
    6.1426   10.1275   29.0441 C   0  0  0  0  0  0  0  0  0  0  0  0
    6.1412   11.2140   28.1693 C   0  0  0  0  0  0  0  0  0  0  0  0
    5.8008   11.1009   26.7344 C   0  0  0  0  0  0  0  0  0  0  0  0
    5.1025   11.9695   26.2289 O   0  0  0  0  0  0  0  0  0  0  0  0
    6.3939   10.0554   26.0658 N   0  0  0  0  0  0  0  0  0  0  0  0
    7.4397   10.2348   25.1630 C   0  0  0  0  0  0  0  0  0  0  0  0
    8.0536    9.1611   24.5813 C   0  0  0  0  0  0  0  0  0  0  0  0
    9.0753    9.5337   23.7812 N   0  0  0  0  0  0  0  0  0  0  0  0
    9.1270   10.8887   23.7951 C   0  0  0  0  0  0  0  0  0  0  0  0
   10.0176   11.6921   23.1106 C   0  0  0  0  0  0  0  0  0  0  0  0
    9.9118   13.0480   23.2606 C   0  0  0  0  0  0  0  0  0  0  0  0
   11.1929   14.1155   22.3904 Br  0  0  0  0  0  0  0  0  0  0  0  0
    8.8876   13.5663   24.0331 C   0  0  0  0  0  0  0  0  0  0  0  0
    7.9666   12.7486   24.7073 C   0  0  0  0  0  0  0  0  0  0  0  0
    8.1023   11.3648   24.6188 C   0  0  0  0  0  0  0  0  0  0  0  0
    6.5989   12.4649   28.5989 C   0  0  0  0  0  0  0  0  0  0  0  0
    7.1266   12.6169   29.8789 C   0  0  0  0  0  0  0  0  0  0  0  0
  2  1  1  6
  2  3  1  0
  2  4  1  0
  4  5  2  0
  5  6  1  0
  6  7  2  0
  7  8  1  0
  8  9  2  0
  8 10  1  0
 10 11  1  0
 11 12  2  0
 12 13  1  0
 13 14  1  0
 14 15  2  0
 15 16  1  0
 16 17  1  0
 16 18  2  0
 18 19  1  0
 19 20  2  0
  7 21  1  0
 21 22  2  0
 22  4  1  0
 20 11  1  0
 20 14  1  0
M  END
>  <distance_score>  (72) 
1.618793

>  <ref_pdb>  (72) 
A0310a

>  <ref_mols>  (72) 
A0566a,A0365a

>  <alias>  (72) 
None

>  <original SMILES>  (72) 
C[C@H](N)c1ccc(C(=O)Nc2c[nH]c3cc(Br)ccc23)cc1

>  <inchikey>  (72) 
PIVUSRIEARQIKL-JTQLQIEISA-N

>  <exports>  (72) 
['/opt/xchem-fragalysis-2/maxwin/2A_HIPPO/hippo/A71EV2A_10_recipes/Recipe_1LPVPY0_poses.sdf']

>  <original ID>  (72) 
PIVUSRIEARQIKL-JTQLQIEISA-N

>  <energy_score>  (72) 
-7.723921

>  <tags>  (72) 
[]

>  <HIPPO ID>  (72) 
63058

>  <name>  (72) 
PIVUSRIEARQIKL-JTQLQIEISA-N

$$$$
PIVUSRIEARQIKL-SNVBAGLBSA-N
     RDKit          3D

 22 24  0  0  0  0  0  0  0  0999 V2000
    6.8342   10.5610   33.2602 C   0  0  0  0  0  0  0  0  0  0  0  0
    7.6255   11.2986   32.1797 C   0  0  1  0  0  0  0  0  0  0  0  0
    8.9980   10.7864   32.1114 N   0  0  0  0  0  0  0  0  0  0  0  0
    6.9968   11.2419   30.7992 C   0  0  0  0  0  0  0  0  0  0  0  0
    6.4508   10.0636   30.2578 C   0  0  0  0  0  0  0  0  0  0  0  0
    6.0041   10.0181   28.9306 C   0  0  0  0  0  0  0  0  0  0  0  0
    6.0975   11.1625   28.1381 C   0  0  0  0  0  0  0  0  0  0  0  0
    5.8478   11.1611   26.6792 C   0  0  0  0  0  0  0  0  0  0  0  0
    5.1870   12.0767   26.2080 O   0  0  0  0  0  0  0  0  0  0  0  0
    6.4730   10.1490   25.9790 N   0  0  0  0  0  0  0  0  0  0  0  0
    7.5059   10.4023   25.0754 C   0  0  0  0  0  0  0  0  0  0  0  0
    8.2900    9.3850   24.5902 C   0  0  0  0  0  0  0  0  0  0  0  0
    9.3171    9.8910   23.8563 N   0  0  0  0  0  0  0  0  0  0  0  0
    9.1559   11.2423   23.7578 C   0  0  0  0  0  0  0  0  0  0  0  0
    9.9479   12.1551   23.0715 C   0  0  0  0  0  0  0  0  0  0  0  0
    9.4435   13.4283   22.8977 C   0  0  0  0  0  0  0  0  0  0  0  0
   10.4123   14.6157   21.7960 Br  0  0  0  0  0  0  0  0  0  0  0  0
    8.2221   13.7757   23.4545 C   0  0  0  0  0  0  0  0  0  0  0  0
    7.5133   12.8975   24.2818 C   0  0  0  0  0  0  0  0  0  0  0  0
    7.9761   11.5828   24.4300 C   0  0  0  0  0  0  0  0  0  0  0  0
    6.5728   12.3604   28.6835 C   0  0  0  0  0  0  0  0  0  0  0  0
    7.0305   12.3948   29.9986 C   0  0  0  0  0  0  0  0  0  0  0  0
  2  1  1  1
  2  3  1  0
  2  4  1  0
  4  5  2  0
  5  6  1  0
  6  7  2  0
  7  8  1  0
  8  9  2  0
  8 10  1  0
 10 11  1  0
 11 12  2  0
 12 13  1  0
 13 14  1  0
 14 15  2  0
 15 16  1  0
 16 17  1  0
 16 18  2  0
 18 19  1  0
 19 20  2  0
  7 21  1  0
 21 22  2  0
 22  4  1  0
 20 11  1  0
 20 14  1  0
M  END
>  <distance_score>  (73) 
1.711304

>  <ref_pdb>  (73) 
A0310a

>  <ref_mols>  (73) 
A0566a,A0365a

>  <alias>  (73) 
None

>  <original SMILES>  (73) 
C[C@@H](N)c1ccc(C(=O)Nc2c[nH]c3cc(Br)ccc23)cc1

>  <inchikey>  (73) 
PIVUSRIEARQIKL-SNVBAGLBSA-N

>  <exports>  (73) 
['/opt/xchem-fragalysis-2/maxwin/2A_HIPPO/hippo/A71EV2A_10_recipes/Recipe_1LPVPY0_poses.sdf']

>  <original ID>  (73) 
PIVUSRIEARQIKL-SNVBAGLBSA-N

>  <energy_score>  (73) 
-9.524567

>  <tags>  (73) 
[]

>  <HIPPO ID>  (73) 
63059

>  <name>  (73) 
PIVUSRIEARQIKL-SNVBAGLBSA-N

$$$$
ZLZBSQNYGCPWFM-UHFFFAOYSA-N
     RDKit          3D

 22 24  0  0  0  0  0  0  0  0999 V2000
    6.7450   13.5564   27.9501 C   0  0  0  0  0  0  0  0  0  0  0  0
    6.5988   12.3074   28.7755 C   0  0  0  0  0  0  0  0  0  0  0  0
    7.0670   12.3204   30.0970 C   0  0  0  0  0  0  0  0  0  0  0  0
    6.9759   11.1796   30.9008 C   0  0  0  0  0  0  0  0  0  0  0  0
    7.5709   11.2422   32.2579 C   0  0  0  0  0  0  0  0  0  0  0  0
    7.0190   10.4455   33.2197 N   0  0  0  0  0  0  0  0  0  0  0  0
    8.5089   11.9885   32.5041 O   0  0  0  0  0  0  0  0  0  0  0  0
    6.3968   10.0101   30.3937 C   0  0  0  0  0  0  0  0  0  0  0  0
    5.9523    9.9688   29.0675 C   0  0  0  0  0  0  0  0  0  0  0  0
    6.0769   11.1038   28.2544 C   0  0  0  0  0  0  0  0  0  0  0  0
    5.7168   11.0225   26.8183 C   0  0  0  0  0  0  0  0  0  0  0  0
    4.8356   11.7604   26.3995 O   0  0  0  0  0  0  0  0  0  0  0  0
    6.4250   10.0907   26.0835 N   0  0  0  0  0  0  0  0  0  0  0  0
    7.4105   10.4640   25.1689 C   0  0  0  0  0  0  0  0  0  0  0  0
    8.3039    9.5613   24.6417 C   0  0  0  0  0  0  0  0  0  0  0  0
    9.2275   10.2217   23.8815 N   0  0  0  0  0  0  0  0  0  0  0  0
    8.8846   11.5449   23.8073 C   0  0  0  0  0  0  0  0  0  0  0  0
    9.4960   12.5744   23.0899 C   0  0  0  0  0  0  0  0  0  0  0  0
    8.7968   13.7709   22.9816 C   0  0  0  0  0  0  0  0  0  0  0  0
    7.5758   13.9358   23.6253 C   0  0  0  0  0  0  0  0  0  0  0  0
    7.0506   12.9443   24.4489 C   0  0  0  0  0  0  0  0  0  0  0  0
    7.7025   11.7077   24.5390 C   0  0  0  0  0  0  0  0  0  0  0  0
  1  2  1  0
  2  3  2  0
  3  4  1  0
  4  5  1  0
  5  6  1  0
  5  7  2  0
  4  8  2  0
  8  9  1  0
  9 10  2  0
 10 11  1  0
 11 12  2  0
 11 13  1  0
 13 14  1  0
 14 15  2  0
 15 16  1  0
 16 17  1  0
 17 18  2  0
 18 19  1  0
 19 20  2  0
 20 21  1  0
 21 22  2  0
 10  2  1  0
 22 14  1  0
 22 17  1  0
M  END
>  <distance_score>  (74) 
1.43329

>  <ref_pdb>  (74) 
A0310a

>  <ref_mols>  (74) 
A0566a,A0365a

>  <alias>  (74) 
None

>  <original SMILES>  (74) 
Cc1cc(C(N)=O)ccc1C(=O)Nc1c[nH]c2ccccc12

>  <inchikey>  (74) 
ZLZBSQNYGCPWFM-UHFFFAOYSA-N

>  <exports>  (74) 
['/opt/xchem-fragalysis-2/maxwin/2A_HIPPO/hippo/A71EV2A_10_recipes/Recipe_1LPVPY0_poses.sdf']

>  <original ID>  (74) 
ZLZBSQNYGCPWFM-UHFFFAOYSA-N

>  <energy_score>  (74) 
-21.751886

>  <tags>  (74) 
[]

>  <HIPPO ID>  (74) 
63398

>  <name>  (74) 
ZLZBSQNYGCPWFM-UHFFFAOYSA-N

$$$$
HQPUYQIGENJVRA-UHFFFAOYSA-N
     RDKit          3D

 23 25  0  0  0  0  0  0  0  0999 V2000
    6.7485   13.7368   27.7038 C   0  0  0  0  0  0  0  0  0  0  0  0
    6.6565   12.5135   28.5734 C   0  0  0  0  0  0  0  0  0  0  0  0
    7.1938   12.5907   29.8666 C   0  0  0  0  0  0  0  0  0  0  0  0
    7.1829   11.4828   30.7184 C   0  0  0  0  0  0  0  0  0  0  0  0
    7.8810   11.6141   32.0199 C   0  0  0  0  0  0  0  0  0  0  0  0
    7.4253   10.8494   33.0544 N   0  0  0  0  0  0  0  0  0  0  0  0
    8.8215   12.3852   32.1569 O   0  0  0  0  0  0  0  0  0  0  0  0
    6.6008   10.2823   30.2958 C   0  0  0  0  0  0  0  0  0  0  0  0
    6.0884   10.1766   28.9966 C   0  0  0  0  0  0  0  0  0  0  0  0
    6.1518   11.2748   28.1234 C   0  0  0  0  0  0  0  0  0  0  0  0
    5.7723   11.1109   26.6961 C   0  0  0  0  0  0  0  0  0  0  0  0
    4.9469   11.8726   26.2123 O   0  0  0  0  0  0  0  0  0  0  0  0
    6.3854   10.0727   26.0272 N   0  0  0  0  0  0  0  0  0  0  0  0
    7.4373   10.2619   25.1319 C   0  0  0  0  0  0  0  0  0  0  0  0
    8.1174    9.1943   24.6118 C   0  0  0  0  0  0  0  0  0  0  0  0
    9.1666    9.5880   23.8556 N   0  0  0  0  0  0  0  0  0  0  0  0
    9.1397   10.9424   23.7952 C   0  0  0  0  0  0  0  0  0  0  0  0
   10.0171   11.7658   23.1162 C   0  0  0  0  0  0  0  0  0  0  0  0
    9.7593   13.1093   23.0933 C   0  0  0  0  0  0  0  0  0  0  0  0
   10.9938   14.2086   22.1951 Br  0  0  0  0  0  0  0  0  0  0  0  0
    8.6064   13.5864   23.6895 C   0  0  0  0  0  0  0  0  0  0  0  0
    7.7302   12.7509   24.4016 C   0  0  0  0  0  0  0  0  0  0  0  0
    8.0233   11.3925   24.5062 C   0  0  0  0  0  0  0  0  0  0  0  0
  1  2  1  0
  2  3  2  0
  3  4  1  0
  4  5  1  0
  5  6  1  0
  5  7  2  0
  4  8  2  0
  8  9  1  0
  9 10  2  0
 10 11  1  0
 11 12  2  0
 11 13  1  0
 13 14  1  0
 14 15  2  0
 15 16  1  0
 16 17  1  0
 17 18  2  0
 18 19  1  0
 19 20  1  0
 19 21  2  0
 21 22  1  0
 22 23  2  0
 10  2  1  0
 23 14  1  0
 23 17  1  0
M  END
>  <distance_score>  (75) 
1.278329

>  <ref_pdb>  (75) 
A0310a

>  <ref_mols>  (75) 
A0566a,A0365a

>  <alias>  (75) 
None

>  <original SMILES>  (75) 
Cc1cc(C(N)=O)ccc1C(=O)Nc1c[nH]c2cc(Br)ccc12

>  <inchikey>  (75) 
HQPUYQIGENJVRA-UHFFFAOYSA-N

>  <exports>  (75) 
['/opt/xchem-fragalysis-2/maxwin/2A_HIPPO/hippo/A71EV2A_10_recipes/Recipe_1LPVPY0_poses.sdf']

>  <original ID>  (75) 
HQPUYQIGENJVRA-UHFFFAOYSA-N

>  <energy_score>  (75) 
-20.078234

>  <tags>  (75) 
[]

>  <HIPPO ID>  (75) 
64481

>  <name>  (75) 
HQPUYQIGENJVRA-UHFFFAOYSA-N

$$$$
XHAXHLPHJNHAKA-UHFFFAOYSA-N
     RDKit          3D

 23 25  0  0  0  0  0  0  0  0999 V2000
    6.7781   13.5736   27.8715 C   0  0  0  0  0  0  0  0  0  0  0  0
    6.6143   12.3260   28.6972 C   0  0  0  0  0  0  0  0  0  0  0  0
    7.0445   12.3412   30.0313 C   0  0  0  0  0  0  0  0  0  0  0  0
    6.9277   11.2015   30.8334 C   0  0  0  0  0  0  0  0  0  0  0  0
    7.4946   11.2599   32.2024 C   0  0  0  0  0  0  0  0  0  0  0  0
    6.9037   10.4823   33.1565 N   0  0  0  0  0  0  0  0  0  0  0  0
    8.4456   11.9848   32.4622 O   0  0  0  0  0  0  0  0  0  0  0  0
    6.3547   10.0340   30.3145 C   0  0  0  0  0  0  0  0  0  0  0  0
    5.9444    9.9919   28.9772 C   0  0  0  0  0  0  0  0  0  0  0  0
    6.0980   11.1240   28.1650 C   0  0  0  0  0  0  0  0  0  0  0  0
    5.7903   11.0454   26.7162 C   0  0  0  0  0  0  0  0  0  0  0  0
    4.9689   11.8262   26.2576 O   0  0  0  0  0  0  0  0  0  0  0  0
    6.4893   10.0824   26.0135 N   0  0  0  0  0  0  0  0  0  0  0  0
    7.5003   10.4089   25.1092 C   0  0  0  0  0  0  0  0  0  0  0  0
    8.3650    9.4685   24.6041 C   0  0  0  0  0  0  0  0  0  0  0  0
    9.3368   10.0802   23.8652 N   0  0  0  0  0  0  0  0  0  0  0  0
    9.0505   11.4152   23.7727 C   0  0  0  0  0  0  0  0  0  0  0  0
    9.7263   12.4118   23.0659 C   0  0  0  0  0  0  0  0  0  0  0  0
    9.0374   13.5958   22.8496 C   0  0  0  0  0  0  0  0  0  0  0  0
    7.7768   13.7620   23.3962 C   0  0  0  0  0  0  0  0  0  0  0  0
    7.0189   14.7741   22.9821 F   0  0  0  0  0  0  0  0  0  0  0  0
    7.2095   12.8571   24.2805 C   0  0  0  0  0  0  0  0  0  0  0  0
    7.8437   11.6243   24.4540 C   0  0  0  0  0  0  0  0  0  0  0  0
  1  2  1  0
  2  3  2  0
  3  4  1  0
  4  5  1  0
  5  6  1  0
  5  7  2  0
  4  8  2  0
  8  9  1  0
  9 10  2  0
 10 11  1  0
 11 12  2  0
 11 13  1  0
 13 14  1  0
 14 15  2  0
 15 16  1  0
 16 17  1  0
 17 18  2  0
 18 19  1  0
 19 20  2  0
 20 21  1  0
 20 22  1  0
 22 23  2  0
 10  2  1  0
 23 14  1  0
 23 17  1  0
M  END
>  <distance_score>  (76) 
1.420776

>  <ref_pdb>  (76) 
A0310a

>  <ref_mols>  (76) 
A0566a,A0365a

>  <alias>  (76) 
None

>  <original SMILES>  (76) 
Cc1cc(C(N)=O)ccc1C(=O)Nc1c[nH]c2ccc(F)cc12

>  <inchikey>  (76) 
XHAXHLPHJNHAKA-UHFFFAOYSA-N

>  <exports>  (76) 
['/opt/xchem-fragalysis-2/maxwin/2A_HIPPO/hippo/A71EV2A_10_recipes/Recipe_1LPVPY0_poses.sdf']

>  <original ID>  (76) 
XHAXHLPHJNHAKA-UHFFFAOYSA-N

>  <energy_score>  (76) 
-26.754074

>  <tags>  (76) 
[]

>  <HIPPO ID>  (76) 
64502

>  <name>  (76) 
XHAXHLPHJNHAKA-UHFFFAOYSA-N

$$$$
ZBZNFNOVDDHGSK-SNVBAGLBSA-N
     RDKit          3D

 20 21  0  0  0  0  0  0  0  0999 V2000
    4.5776    8.2693   28.1025 C   0  0  0  0  0  0  0  0  0  0  0  0
    4.6361    8.9681   26.8749 O   0  0  0  0  0  0  0  0  0  0  0  0
    5.4143   10.0703   26.9610 C   0  0  0  0  0  0  0  0  0  0  0  0
    5.2247   11.1152   27.8443 C   0  0  0  0  0  0  0  0  0  0  0  0
    5.9876   12.2261   27.8548 N   0  0  0  0  0  0  0  0  0  0  0  0
    6.9285   12.3087   26.9035 C   0  0  0  0  0  0  0  0  0  0  0  0
    7.1537   11.3237   25.9613 C   0  0  0  0  0  0  0  0  0  0  0  0
    8.1583   11.4541   24.9014 C   0  0  0  0  0  0  0  0  0  0  0  0
    8.1034   12.8235   24.2673 C   0  0  0  0  0  0  0  0  0  0  0  0
    9.1828   12.8176   23.2569 C   0  0  0  0  0  0  0  0  0  0  0  0
    9.8310   11.8143   22.9919 O   0  0  0  0  0  0  0  0  0  0  0  0
    9.3863   14.0397   22.6829 N   0  0  0  0  0  0  0  0  0  0  0  0
   10.3622   14.0994   21.6190 C   0  0  2  0  0  0  0  0  0  0  0  0
   11.7575   13.6965   22.0411 C   0  0  0  0  0  0  0  0  0  0  0  0
   12.2782   14.9838   22.5456 C   0  0  0  0  0  0  0  0  0  0  0  0
   13.0957   15.0853   23.4352 O   0  0  0  0  0  0  0  0  0  0  0  0
   11.6610   15.9823   21.8770 N   0  0  0  0  0  0  0  0  0  0  0  0
   10.5620   15.5227   21.2215 C   0  0  0  0  0  0  0  0  0  0  0  0
    9.7915   16.1409   20.5059 O   0  0  0  0  0  0  0  0  0  0  0  0
    6.4058   10.1724   26.0201 C   0  0  0  0  0  0  0  0  0  0  0  0
  1  2  1  0
  2  3  1  0
  3  4  2  0
  4  5  1  0
  5  6  2  0
  6  7  1  0
  7  8  1  0
  8  9  1  0
  9 10  1  0
 10 11  2  0
 10 12  1  0
 13 12  1  1
 13 14  1  0
 14 15  1  0
 15 16  2  0
 15 17  1  0
 17 18  1  0
 18 19  2  0
  7 20  2  0
 20  3  1  0
 18 13  1  0
M  END
>  <distance_score>  (77) 
2.220655

>  <ref_pdb>  (77) 
A0310a

>  <ref_mols>  (77) 
A0515a,A0528a

>  <alias>  (77) 
None

>  <original SMILES>  (77) 
COc1cncc(CCC(=O)N[C@@H]2CC(=O)NC2=O)c1

>  <inchikey>  (77) 
ZBZNFNOVDDHGSK-SNVBAGLBSA-N

>  <exports>  (77) 
['/opt/xchem-fragalysis-2/maxwin/2A_HIPPO/hippo/A71EV2A_10_recipes/Recipe_1LPVPY0_poses.sdf']

>  <original ID>  (77) 
ZBZNFNOVDDHGSK-SNVBAGLBSA-N

>  <energy_score>  (77) 
-19.952401

>  <tags>  (77) 
[]

>  <HIPPO ID>  (77) 
70126

>  <name>  (77) 
ZBZNFNOVDDHGSK-SNVBAGLBSA-N

$$$$
ZBZNFNOVDDHGSK-JTQLQIEISA-N
     RDKit          3D

 20 21  0  0  0  0  0  0  0  0999 V2000
    4.7644    8.8432   27.6649 C   0  0  0  0  0  0  0  0  0  0  0  0
    6.0473    9.4586   27.6886 O   0  0  0  0  0  0  0  0  0  0  0  0
    6.0566   10.5580   26.8991 C   0  0  0  0  0  0  0  0  0  0  0  0
    5.4267   11.7342   27.2512 C   0  0  0  0  0  0  0  0  0  0  0  0
    5.4685   12.8612   26.5184 N   0  0  0  0  0  0  0  0  0  0  0  0
    6.1855   12.8126   25.3927 C   0  0  0  0  0  0  0  0  0  0  0  0
    6.9124   11.6993   25.0120 C   0  0  0  0  0  0  0  0  0  0  0  0
    7.9606   11.8625   23.9828 C   0  0  0  0  0  0  0  0  0  0  0  0
    9.1136   12.3257   24.7892 C   0  0  0  0  0  0  0  0  0  0  0  0
   10.1651   12.8103   23.8981 C   0  0  0  0  0  0  0  0  0  0  0  0
   11.0267   12.0678   23.4688 O   0  0  0  0  0  0  0  0  0  0  0  0
   10.0469   14.1505   23.6897 N   0  0  0  0  0  0  0  0  0  0  0  0
   10.9377   14.8490   22.8282 C   0  0  1  0  0  0  0  0  0  0  0  0
   12.3951   14.5063   22.8191 C   0  0  0  0  0  0  0  0  0  0  0  0
   12.6631   15.2069   21.5388 C   0  0  0  0  0  0  0  0  0  0  0  0
   13.4739   16.0973   21.3954 O   0  0  0  0  0  0  0  0  0  0  0  0
   11.6890   14.8585   20.6625 N   0  0  0  0  0  0  0  0  0  0  0  0
   10.5352   14.8368   21.3733 C   0  0  0  0  0  0  0  0  0  0  0  0
    9.3989   14.9859   20.9552 O   0  0  0  0  0  0  0  0  0  0  0  0
    6.8296   10.5409   25.7673 C   0  0  0  0  0  0  0  0  0  0  0  0
  1  2  1  0
  2  3  1  0
  3  4  2  0
  4  5  1  0
  5  6  2  0
  6  7  1  0
  7  8  1  0
  8  9  1  0
  9 10  1  0
 10 11  2  0
 10 12  1  0
 13 12  1  1
 13 14  1  0
 14 15  1  0
 15 16  2  0
 15 17  1  0
 17 18  1  0
 18 19  2  0
  7 20  2  0
 20  3  1  0
 18 13  1  0
M  END
>  <distance_score>  (78) 
2.364777

>  <ref_pdb>  (78) 
A0310a

>  <ref_mols>  (78) 
A0515a,A0528a

>  <alias>  (78) 
None

>  <original SMILES>  (78) 
COc1cncc(CCC(=O)N[C@H]2CC(=O)NC2=O)c1

>  <inchikey>  (78) 
ZBZNFNOVDDHGSK-JTQLQIEISA-N

>  <exports>  (78) 
['/opt/xchem-fragalysis-2/maxwin/2A_HIPPO/hippo/A71EV2A_10_recipes/Recipe_1LPVPY0_poses.sdf']

>  <original ID>  (78) 
ZBZNFNOVDDHGSK-JTQLQIEISA-N

>  <energy_score>  (78) 
-7.467361

>  <tags>  (78) 
[]

>  <HIPPO ID>  (78) 
70127

>  <name>  (78) 
ZBZNFNOVDDHGSK-JTQLQIEISA-N

$$$$
XYTAGSNGJMEVLZ-CYBMUJFWSA-N
     RDKit          3D

 21 22  0  0  0  0  0  0  0  0999 V2000
    7.1727   14.1682   22.4586 C   0  0  0  0  0  0  0  0  0  0  0  0
    8.4553   14.4351   23.2039 C   0  0  0  0  0  0  0  0  0  0  0  0
    9.6049   13.5900   23.0747 N   0  0  0  0  0  0  0  0  0  0  0  0
    9.6933   12.3435   23.6311 C   0  0  0  0  0  0  0  0  0  0  0  0
   10.4132   11.4434   23.2184 O   0  0  0  0  0  0  0  0  0  0  0  0
    8.8746   12.1016   24.8299 C   0  0  0  0  0  0  0  0  0  0  0  0
    7.6359   11.4117   24.4056 C   0  0  0  0  0  0  0  0  0  0  0  0
    6.7327   11.3673   25.5563 C   0  0  0  0  0  0  0  0  0  0  0  0
    6.0573   12.4932   25.9867 C   0  0  0  0  0  0  0  0  0  0  0  0
    5.3352   12.5287   27.1162 N   0  0  0  0  0  0  0  0  0  0  0  0
    5.2650   11.3802   27.8180 C   0  0  0  0  0  0  0  0  0  0  0  0
    5.8832   10.2098   27.4218 C   0  0  0  0  0  0  0  0  0  0  0  0
    5.8605    9.0811   28.1653 O   0  0  0  0  0  0  0  0  0  0  0  0
    4.6927    8.3358   27.8480 C   0  0  0  0  0  0  0  0  0  0  0  0
    6.6363   10.2066   26.2770 C   0  0  0  0  0  0  0  0  0  0  0  0
   10.5703   13.9239   22.0285 C   0  0  2  0  0  0  0  0  0  0  0  0
   12.0152   13.7805   22.4912 C   0  0  0  0  0  0  0  0  0  0  0  0
   12.4015   15.1734   22.9236 C   0  0  0  0  0  0  0  0  0  0  0  0
   11.6509   16.0186   22.0633 N   0  0  0  0  0  0  0  0  0  0  0  0
   10.6379   15.3304   21.4287 C   0  0  0  0  0  0  0  0  0  0  0  0
    9.8811   15.7906   20.5891 O   0  0  0  0  0  0  0  0  0  0  0  0
  1  2  1  0
  2  3  1  0
  3  4  1  0
  4  5  2  0
  4  6  1  0
  6  7  1  0
  7  8  1  0
  8  9  2  0
  9 10  1  0
 10 11  2  0
 11 12  1  0
 12 13  1  0
 13 14  1  0
 12 15  2  0
 16  3  1  1
 16 17  1  0
 17 18  1  0
 18 19  1  0
 19 20  1  0
 20 21  2  0
 15  8  1  0
 20 16  1  0
M  END
>  <distance_score>  (79) 
2.184489

>  <ref_pdb>  (79) 
A0310a

>  <ref_mols>  (79) 
A0515a,A0528a

>  <alias>  (79) 
None

>  <original SMILES>  (79) 
CCN(C(=O)CCc1cncc(OC)c1)[C@@H]1CCNC1=O

>  <inchikey>  (79) 
XYTAGSNGJMEVLZ-CYBMUJFWSA-N

>  <exports>  (79) 
['/opt/xchem-fragalysis-2/maxwin/2A_HIPPO/hippo/A71EV2A_10_recipes/Recipe_1LPVPY0_poses.sdf']

>  <original ID>  (79) 
XYTAGSNGJMEVLZ-CYBMUJFWSA-N

>  <energy_score>  (79) 
-6.982897

>  <tags>  (79) 
[]

>  <HIPPO ID>  (79) 
71030

>  <name>  (79) 
XYTAGSNGJMEVLZ-CYBMUJFWSA-N

$$$$
XYTAGSNGJMEVLZ-ZDUSSCGKSA-N
     RDKit          3D

 21 22  0  0  0  0  0  0  0  0999 V2000
    7.2089   14.7183   21.6409 C   0  0  0  0  0  0  0  0  0  0  0  0
    7.8892   14.2201   22.8488 C   0  0  0  0  0  0  0  0  0  0  0  0
    9.3113   13.9228   22.8991 N   0  0  0  0  0  0  0  0  0  0  0  0
    9.7082   13.2121   24.0197 C   0  0  0  0  0  0  0  0  0  0  0  0
   10.8282   12.7628   24.2376 O   0  0  0  0  0  0  0  0  0  0  0  0
    8.6632   13.0242   25.0602 C   0  0  0  0  0  0  0  0  0  0  0  0
    8.2876   11.5674   25.0866 C   0  0  0  0  0  0  0  0  0  0  0  0
    7.1940   11.3390   26.0572 C   0  0  0  0  0  0  0  0  0  0  0  0
    6.8292   12.2681   27.0235 C   0  0  0  0  0  0  0  0  0  0  0  0
    5.8019   12.1264   27.8712 N   0  0  0  0  0  0  0  0  0  0  0  0
    5.0932   10.9965   27.7496 C   0  0  0  0  0  0  0  0  0  0  0  0
    5.4209    9.9910   26.8604 C   0  0  0  0  0  0  0  0  0  0  0  0
    4.6948    8.8552   26.7353 O   0  0  0  0  0  0  0  0  0  0  0  0
    4.7155    8.1184   27.9512 C   0  0  0  0  0  0  0  0  0  0  0  0
    6.4859   10.1612   26.0031 C   0  0  0  0  0  0  0  0  0  0  0  0
   10.3550   14.7064   22.1981 C   0  0  1  0  0  0  0  0  0  0  0  0
   11.7094   13.9895   22.0638 C   0  0  0  0  0  0  0  0  0  0  0  0
   12.3174   14.5317   20.8040 C   0  0  0  0  0  0  0  0  0  0  0  0
   11.2274   14.9449   20.0122 N   0  0  0  0  0  0  0  0  0  0  0  0
   10.1328   15.2332   20.7739 C   0  0  0  0  0  0  0  0  0  0  0  0
    9.2135   15.8826   20.3136 O   0  0  0  0  0  0  0  0  0  0  0  0
  1  2  1  0
  2  3  1  0
  3  4  1  0
  4  5  2  0
  4  6  1  0
  6  7  1  0
  7  8  1  0
  8  9  2  0
  9 10  1  0
 10 11  2  0
 11 12  1  0
 12 13  1  0
 13 14  1  0
 12 15  2  0
 16  3  1  6
 16 17  1  0
 17 18  1  0
 18 19  1  0
 19 20  1  0
 20 21  2  0
 15  8  1  0
 20 16  1  0
M  END
>  <distance_score>  (80) 
2.501962

>  <ref_pdb>  (80) 
A0310a

>  <ref_mols>  (80) 
A0515a,A0528a

>  <alias>  (80) 
None

>  <original SMILES>  (80) 
CCN(C(=O)CCc1cncc(OC)c1)[C@H]1CCNC1=O

>  <inchikey>  (80) 
XYTAGSNGJMEVLZ-ZDUSSCGKSA-N

>  <exports>  (80) 
['/opt/xchem-fragalysis-2/maxwin/2A_HIPPO/hippo/A71EV2A_10_recipes/Recipe_1LPVPY0_poses.sdf']

>  <original ID>  (80) 
XYTAGSNGJMEVLZ-ZDUSSCGKSA-N

>  <energy_score>  (80) 
-7.77279

>  <tags>  (80) 
[]

>  <HIPPO ID>  (80) 
71031

>  <name>  (80) 
XYTAGSNGJMEVLZ-ZDUSSCGKSA-N

$$$$
NKHJVGNWKQVXFO-MRVPVSSYSA-N
     RDKit          3D

 18 19  0  0  0  0  0  0  0  0999 V2000
    9.1328   10.1728   24.5582 O   0  0  0  0  0  0  0  0  0  0  0  0
    8.5044   11.1937   24.3418 C   0  0  0  0  0  0  0  0  0  0  0  0
    8.6047   11.8071   23.1543 O   0  0  0  0  0  0  0  0  0  0  0  0
    8.4344   13.2174   22.9305 C   0  0  0  0  0  0  0  0  0  0  0  0
    9.7363   13.9826   23.1583 C   0  0  1  0  0  0  0  0  0  0  0  0
   10.9548   13.1431   23.5204 C   0  0  0  0  0  0  0  0  0  0  0  0
   12.1778   14.0295   23.7135 C   0  0  0  0  0  0  0  0  0  0  0  0
   12.4219   14.8082   22.4400 C   0  0  0  0  0  0  0  0  0  0  0  0
   11.2534   15.5290   22.0281 N   0  0  0  0  0  0  0  0  0  0  0  0
   10.0362   14.9028   21.9830 C   0  0  0  0  0  0  0  0  0  0  0  0
    9.2198   15.2139   21.1237 O   0  0  0  0  0  0  0  0  0  0  0  0
    7.5605   11.7209   25.3406 C   0  0  0  0  0  0  0  0  0  0  0  0
    7.6039   13.0160   25.8568 C   0  0  0  0  0  0  0  0  0  0  0  0
    6.6566   13.3856   26.7944 C   0  0  0  0  0  0  0  0  0  0  0  0
    5.7281   12.5408   27.2830 N   0  0  0  0  0  0  0  0  0  0  0  0
    5.7388   11.2778   26.8023 C   0  0  0  0  0  0  0  0  0  0  0  0
    6.6275   10.8342   25.8466 C   0  0  0  0  0  0  0  0  0  0  0  0
    6.5679    9.5713   25.4230 F   0  0  0  0  0  0  0  0  0  0  0  0
  1  2  2  0
  2  3  1  0
  3  4  1  0
  5  4  1  6
  5  6  1  0
  6  7  1  0
  7  8  1  0
  8  9  1  0
  9 10  1  0
 10 11  2  0
  2 12  1  0
 12 13  2  0
 13 14  1  0
 14 15  2  0
 15 16  1  0
 16 17  2  0
 17 18  1  0
 10  5  1  0
 17 12  1  0
M  END
>  <distance_score>  (81) 
1.171177

>  <ref_pdb>  (81) 
A0310a

>  <ref_mols>  (81) 
A0515a,A0528a

>  <alias>  (81) 
None

>  <original SMILES>  (81) 
O=C(OC[C@H]1CCCNC1=O)c1ccncc1F

>  <inchikey>  (81) 
NKHJVGNWKQVXFO-MRVPVSSYSA-N

>  <exports>  (81) 
['/opt/xchem-fragalysis-2/maxwin/2A_HIPPO/hippo/A71EV2A_10_recipes/Recipe_1LPUPHX_poses.sdf', '/opt/xchem-fragalysis-2/maxwin/2A_HIPPO/hippo/A71EV2A_10_recipes/Recipe_1LPVPY0_poses.sdf']

>  <original ID>  (81) 
NKHJVGNWKQVXFO-MRVPVSSYSA-N

>  <energy_score>  (81) 
-13.261243

>  <tags>  (81) 
['Syndirella scaffold']

>  <HIPPO ID>  (81) 
75020

>  <name>  (81) 
NKHJVGNWKQVXFO-MRVPVSSYSA-N

$$$$
GTCGCXNHPFESGP-ZETCQYMHSA-N
     RDKit          3D

 19 20  0  0  0  0  0  0  0  0999 V2000
    8.6975   10.4822   23.3509 O   0  0  0  0  0  0  0  0  0  0  0  0
    8.5992   11.3901   24.1450 C   0  0  0  0  0  0  0  0  0  0  0  0
    9.6614   11.9805   24.7138 O   0  0  0  0  0  0  0  0  0  0  0  0
    9.9638   13.3320   24.3253 C   0  0  0  0  0  0  0  0  0  0  0  0
   10.4857   13.3702   22.8951 C   0  0  2  0  0  0  0  0  0  0  0  0
   11.9993   13.4580   22.9166 C   0  0  0  0  0  0  0  0  0  0  0  0
   12.4497   14.8804   23.1520 C   0  0  0  0  0  0  0  0  0  0  0  0
   12.0195   15.6943   21.9611 C   0  0  0  0  0  0  0  0  0  0  0  0
   10.6130   15.5406   21.7131 N   0  0  0  0  0  0  0  0  0  0  0  0
    9.8403   14.5014   22.1198 C   0  0  0  0  0  0  0  0  0  0  0  0
    8.6251   14.5523   21.9402 O   0  0  0  0  0  0  0  0  0  0  0  0
    7.3851   11.8251   24.8433 C   0  0  0  0  0  0  0  0  0  0  0  0
    6.8192   13.0798   24.6279 C   0  0  0  0  0  0  0  0  0  0  0  0
    5.7982   13.4776   25.4683 C   0  0  0  0  0  0  0  0  0  0  0  0
    5.3148   12.7070   26.4658 N   0  0  0  0  0  0  0  0  0  0  0  0
    5.8266   11.4589   26.5849 C   0  0  0  0  0  0  0  0  0  0  0  0
    5.0797   10.3534   27.9280 Br  0  0  0  0  0  0  0  0  0  0  0  0
    6.8561   10.9791   25.7980 C   0  0  0  0  0  0  0  0  0  0  0  0
    7.3461    9.7460   25.9567 F   0  0  0  0  0  0  0  0  0  0  0  0
  1  2  2  0
  2  3  1  0
  3  4  1  0
  5  4  1  1
  5  6  1  0
  6  7  1  0
  7  8  1  0
  8  9  1  0
  9 10  1  0
 10 11  2  0
  2 12  1  0
 12 13  2  0
 13 14  1  0
 14 15  2  0
 15 16  1  0
 16 17  1  0
 16 18  2  0
 18 19  1  0
 10  5  1  0
 18 12  1  0
M  END
>  <distance_score>  (82) 
1.394788

>  <ref_pdb>  (82) 
A0310a

>  <ref_mols>  (82) 
A0515a,A0528a

>  <alias>  (82) 
None

>  <original SMILES>  (82) 
O=C(OC[C@@H]1CCCNC1=O)c1ccnc(Br)c1F

>  <inchikey>  (82) 
GTCGCXNHPFESGP-ZETCQYMHSA-N

>  <exports>  (82) 
['/opt/xchem-fragalysis-2/maxwin/2A_HIPPO/hippo/A71EV2A_10_recipes/Recipe_1LPVPY0_poses.sdf']

>  <original ID>  (82) 
GTCGCXNHPFESGP-ZETCQYMHSA-N

>  <energy_score>  (82) 
-22.057512

>  <tags>  (82) 
[]

>  <HIPPO ID>  (82) 
75039

>  <name>  (82) 
GTCGCXNHPFESGP-ZETCQYMHSA-N

$$$$
GTCGCXNHPFESGP-ZETCQYMHSA-N
     RDKit          3D

 19 20  0  0  0  0  0  0  0  0999 V2000
    7.9340   14.2414   25.4194 O   0  0  0  0  0  0  0  0  0  0  0  0
    7.8887   13.2395   24.7412 C   0  0  0  0  0  0  0  0  0  0  0  0
    8.0046   13.0606   23.4057 O   0  0  0  0  0  0  0  0  0  0  0  0
    8.6165   14.0596   22.6161 C   0  0  0  0  0  0  0  0  0  0  0  0
   10.1362   13.9848   22.5883 C   0  0  2  0  0  0  0  0  0  0  0  0
   10.8530   14.1874   23.9394 C   0  0  0  0  0  0  0  0  0  0  0  0
   12.3541   14.2453   23.7323 C   0  0  0  0  0  0  0  0  0  0  0  0
   12.6323   15.3693   22.7630 C   0  0  0  0  0  0  0  0  0  0  0  0
   11.9715   15.1644   21.5127 N   0  0  0  0  0  0  0  0  0  0  0  0
   10.6256   14.9312   21.4999 C   0  0  0  0  0  0  0  0  0  0  0  0
    9.9209   15.3897   20.6067 O   0  0  0  0  0  0  0  0  0  0  0  0
    7.8160   11.8600   25.1808 C   0  0  0  0  0  0  0  0  0  0  0  0
    6.7280   11.3255   25.8238 C   0  0  0  0  0  0  0  0  0  0  0  0
    6.6515    9.9571   25.7348 C   0  0  0  0  0  0  0  0  0  0  0  0
    7.5097    9.1760   25.0045 N   0  0  0  0  0  0  0  0  0  0  0  0
    8.5563    9.7512   24.4186 C   0  0  0  0  0  0  0  0  0  0  0  0
    9.6712    8.9602   23.1362 Br  0  0  0  0  0  0  0  0  0  0  0  0
    8.7849   11.0594   24.6019 C   0  0  0  0  0  0  0  0  0  0  0  0
    9.8791   11.5716   24.0638 F   0  0  0  0  0  0  0  0  0  0  0  0
  1  2  2  0
  2  3  1  0
  3  4  1  0
  5  4  1  1
  5  6  1  0
  6  7  1  0
  7  8  1  0
  8  9  1  0
  9 10  1  0
 10 11  2  0
  2 12  1  0
 12 13  2  0
 13 14  1  0
 14 15  2  0
 15 16  1  0
 16 17  1  0
 16 18  2  0
 18 19  1  0
 10  5  1  0
 18 12  1  0
M  END
>  <distance_score>  (83) 
1.674057

>  <ref_pdb>  (83) 
A0310a

>  <ref_mols>  (83) 
A0515a,A0528a

>  <alias>  (83) 
None

>  <original SMILES>  (83) 
O=C(OC[C@@H]1CCCNC1=O)c1ccnc(Br)c1F

>  <inchikey>  (83) 
GTCGCXNHPFESGP-ZETCQYMHSA-N

>  <exports>  (83) 
['/opt/xchem-fragalysis-2/maxwin/2A_HIPPO/hippo/A71EV2A_10_recipes/Recipe_1LPVPY0_poses.sdf']

>  <original ID>  (83) 
GTCGCXNHPFESGP-ZETCQYMHSA-N

>  <energy_score>  (83) 
3.945925

>  <tags>  (83) 
[]

>  <HIPPO ID>  (83) 
75040

>  <name>  (83) 
GTCGCXNHPFESGP-ZETCQYMHSA-N

$$$$
NUUCNSJKYFEGRF-QMMMGPOBSA-N
     RDKit          3D

 20 21  0  0  0  0  0  0  0  0999 V2000
    5.5011   15.6483   26.7277 C   0  0  0  0  0  0  0  0  0  0  0  0
    6.2932   15.0313   25.7235 O   0  0  0  0  0  0  0  0  0  0  0  0
    6.2831   13.6544   25.7983 C   0  0  0  0  0  0  0  0  0  0  0  0
    6.9697   13.0116   24.7923 C   0  0  0  0  0  0  0  0  0  0  0  0
    7.3097   11.6720   24.9770 C   0  0  0  0  0  0  0  0  0  0  0  0
    8.3448   10.9933   24.1567 C   0  0  0  0  0  0  0  0  0  0  0  0
    8.6603    9.8242   24.2438 O   0  0  0  0  0  0  0  0  0  0  0  0
    8.9505   11.8270   23.2927 O   0  0  0  0  0  0  0  0  0  0  0  0
    9.8198   12.7533   23.9395 C   0  0  0  0  0  0  0  0  0  0  0  0
   10.7034   13.4542   22.9469 C   0  0  2  0  0  0  0  0  0  0  0  0
   11.8173   14.1444   23.7314 C   0  0  0  0  0  0  0  0  0  0  0  0
   12.5297   15.2097   22.9285 C   0  0  0  0  0  0  0  0  0  0  0  0
   12.1904   15.1510   21.4634 C   0  0  0  0  0  0  0  0  0  0  0  0
   10.7655   15.2597   21.3322 N   0  0  0  0  0  0  0  0  0  0  0  0
    9.9531   14.4660   22.0953 C   0  0  0  0  0  0  0  0  0  0  0  0
    8.7381   14.6094   22.0809 O   0  0  0  0  0  0  0  0  0  0  0  0
    6.7405   10.9882   26.0325 C   0  0  0  0  0  0  0  0  0  0  0  0
    6.9452    9.6853   26.2136 F   0  0  0  0  0  0  0  0  0  0  0  0
    5.9693   11.6892   26.9378 C   0  0  0  0  0  0  0  0  0  0  0  0
    5.7794   13.0257   26.8806 N   0  0  0  0  0  0  0  0  0  0  0  0
  1  2  1  0
  2  3  1  0
  3  4  2  0
  4  5  1  0
  5  6  1  0
  6  7  2  0
  6  8  1  0
  8  9  1  0
 10  9  1  1
 10 11  1  0
 11 12  1  0
 12 13  1  0
 13 14  1  0
 14 15  1  0
 15 16  2  0
  5 17  2  0
 17 18  1  0
 17 19  1  0
 19 20  2  0
 20  3  1  0
 15 10  1  0
M  END
>  <distance_score>  (84) 
1.403782

>  <ref_pdb>  (84) 
A0310a

>  <ref_mols>  (84) 
A0515a,A0528a

>  <alias>  (84) 
None

>  <original SMILES>  (84) 
COc1cc(C(=O)OC[C@@H]2CCCNC2=O)c(F)cn1

>  <inchikey>  (84) 
NUUCNSJKYFEGRF-QMMMGPOBSA-N

>  <exports>  (84) 
['/opt/xchem-fragalysis-2/maxwin/2A_HIPPO/hippo/A71EV2A_10_recipes/Recipe_1LPVPY0_poses.sdf']

>  <original ID>  (84) 
NUUCNSJKYFEGRF-QMMMGPOBSA-N

>  <energy_score>  (84) 
-16.308119

>  <tags>  (84) 
[]

>  <HIPPO ID>  (84) 
75069

>  <name>  (84) 
NUUCNSJKYFEGRF-QMMMGPOBSA-N

$$$$
YOZGXEFFSUYIHZ-UHFFFAOYSA-N
     RDKit          3D

 15 15  0  0  0  0  0  0  0  0999 V2000
   11.8089   16.6236   22.6298 N   0  0  0  0  0  0  0  0  0  0  0  0
   11.8820   15.4738   22.5043 C   0  0  0  0  0  0  0  0  0  0  0  0
   11.9108   14.0267   22.3520 C   0  0  0  0  0  0  0  0  0  0  0  0
   11.0159   13.4094   23.3816 C   0  0  0  0  0  0  0  0  0  0  0  0
   10.9521   13.8380   24.5356 O   0  0  0  0  0  0  0  0  0  0  0  0
   10.3001   12.3035   22.9536 N   0  0  0  0  0  0  0  0  0  0  0  0
    9.2355   11.8331   23.7325 C   0  0  0  0  0  0  0  0  0  0  0  0
    8.9696   10.4804   23.8666 C   0  0  0  0  0  0  0  0  0  0  0  0
    7.9506   10.0941   24.7428 C   0  0  0  0  0  0  0  0  0  0  0  0
    7.1943   11.0781   25.3947 C   0  0  0  0  0  0  0  0  0  0  0  0
    6.0480   10.8317   26.3313 C   0  0  0  0  0  0  0  0  0  0  0  0
    5.6961    9.5561   26.6110 N   0  0  0  0  0  0  0  0  0  0  0  0
    5.4063   11.7301   26.8666 O   0  0  0  0  0  0  0  0  0  0  0  0
    7.4221   12.3894   25.2244 N   0  0  0  0  0  0  0  0  0  0  0  0
    8.4229   12.7366   24.4123 C   0  0  0  0  0  0  0  0  0  0  0  0
  1  2  3  0
  2  3  1  0
  3  4  1  0
  4  5  2  0
  4  6  1  0
  6  7  1  0
  7  8  2  0
  8  9  1  0
  9 10  2  0
 10 11  1  0
 11 12  1  0
 11 13  2  0
 10 14  1  0
 14 15  2  0
 15  7  1  0
M  END
>  <distance_score>  (85) 
1.191251

>  <ref_pdb>  (85) 
A0310a

>  <ref_mols>  (85) 
A0556a,A0310a

>  <alias>  (85) 
None

>  <original SMILES>  (85) 
N#CCC(=O)Nc1ccc(C(N)=O)nc1

>  <inchikey>  (85) 
YOZGXEFFSUYIHZ-UHFFFAOYSA-N

>  <exports>  (85) 
['/opt/xchem-fragalysis-2/maxwin/2A_HIPPO/hippo/A71EV2A_10_recipes/Recipe_1LPUPHX_poses.sdf', '/opt/xchem-fragalysis-2/maxwin/2A_HIPPO/hippo/A71EV2A_10_recipes/Recipe_1LPVPY0_poses.sdf']

>  <original ID>  (85) 
YOZGXEFFSUYIHZ-UHFFFAOYSA-N

>  <energy_score>  (85) 
-15.154802

>  <tags>  (85) 
['Syndirella scaffold']

>  <HIPPO ID>  (85) 
78820

>  <name>  (85) 
YOZGXEFFSUYIHZ-UHFFFAOYSA-N

$$$$
OYQPMKKUMAALNJ-ZCFIWIBFSA-N
     RDKit          3D

 16 16  0  0  0  0  0  0  0  0999 V2000
   12.9814   13.6741   24.1327 C   0  0  0  0  0  0  0  0  0  0  0  0
   12.0079   13.9432   22.9912 C   0  0  2  0  0  0  0  0  0  0  0  0
   11.9457   15.3697   22.6822 C   0  0  0  0  0  0  0  0  0  0  0  0
   11.8662   16.5042   22.4607 N   0  0  0  0  0  0  0  0  0  0  0  0
   10.6796   13.5332   23.5463 C   0  0  0  0  0  0  0  0  0  0  0  0
   10.1930   14.1609   24.4915 O   0  0  0  0  0  0  0  0  0  0  0  0
   10.1422   12.3540   23.0531 N   0  0  0  0  0  0  0  0  0  0  0  0
    9.0070   11.8346   23.6937 C   0  0  0  0  0  0  0  0  0  0  0  0
    8.8999   10.4815   23.9692 C   0  0  0  0  0  0  0  0  0  0  0  0
    7.8957   10.0752   24.8510 C   0  0  0  0  0  0  0  0  0  0  0  0
    7.0111   11.0272   25.3744 C   0  0  0  0  0  0  0  0  0  0  0  0
    5.9567   10.7777   26.4119 C   0  0  0  0  0  0  0  0  0  0  0  0
    5.8792    9.5494   26.9769 N   0  0  0  0  0  0  0  0  0  0  0  0
    5.1678   11.6343   26.7980 O   0  0  0  0  0  0  0  0  0  0  0  0
    7.0414   12.3132   25.0002 N   0  0  0  0  0  0  0  0  0  0  0  0
    8.0178   12.6879   24.1744 C   0  0  0  0  0  0  0  0  0  0  0  0
  2  1  1  1
  2  3  1  0
  3  4  3  0
  2  5  1  0
  5  6  2  0
  5  7  1  0
  7  8  1  0
  8  9  2  0
  9 10  1  0
 10 11  2  0
 11 12  1  0
 12 13  1  0
 12 14  2  0
 11 15  1  0
 15 16  2  0
 16  8  1  0
M  END
>  <distance_score>  (86) 
1.245851

>  <ref_pdb>  (86) 
A0310a

>  <ref_mols>  (86) 
A0556a,A0310a

>  <alias>  (86) 
None

>  <original SMILES>  (86) 
C[C@H](C#N)C(=O)Nc1ccc(C(N)=O)nc1

>  <inchikey>  (86) 
OYQPMKKUMAALNJ-ZCFIWIBFSA-N

>  <exports>  (86) 
['/opt/xchem-fragalysis-2/maxwin/2A_HIPPO/hippo/A71EV2A_10_recipes/Recipe_1LPVPY0_poses.sdf']

>  <original ID>  (86) 
OYQPMKKUMAALNJ-ZCFIWIBFSA-N

>  <energy_score>  (86) 
5.513635

>  <tags>  (86) 
[]

>  <HIPPO ID>  (86) 
78829

>  <name>  (86) 
OYQPMKKUMAALNJ-ZCFIWIBFSA-N

$$$$
OYQPMKKUMAALNJ-LURJTMIESA-N
     RDKit          3D

 16 16  0  0  0  0  0  0  0  0999 V2000
   11.7059   14.2397   20.8769 C   0  0  0  0  0  0  0  0  0  0  0  0
   11.9754   14.3458   22.3638 C   0  0  1  0  0  0  0  0  0  0  0  0
   11.8585   15.7566   22.7177 C   0  0  0  0  0  0  0  0  0  0  0  0
   11.7255   16.8861   22.9344 N   0  0  0  0  0  0  0  0  0  0  0  0
   11.0835   13.5628   23.3070 C   0  0  0  0  0  0  0  0  0  0  0  0
   11.0111   13.8801   24.5013 O   0  0  0  0  0  0  0  0  0  0  0  0
   10.4184   12.4510   22.8214 N   0  0  0  0  0  0  0  0  0  0  0  0
    9.3877   11.8755   23.5863 C   0  0  0  0  0  0  0  0  0  0  0  0
    9.1633   10.5035   23.6191 C   0  0  0  0  0  0  0  0  0  0  0  0
    8.1793   10.0097   24.4827 C   0  0  0  0  0  0  0  0  0  0  0  0
    7.4408   10.9216   25.2364 C   0  0  0  0  0  0  0  0  0  0  0  0
    6.3609   10.5675   26.2017 C   0  0  0  0  0  0  0  0  0  0  0  0
    6.2644   11.4362   27.2513 N   0  0  0  0  0  0  0  0  0  0  0  0
    5.5587    9.6657   26.0663 O   0  0  0  0  0  0  0  0  0  0  0  0
    7.6200   12.2588   25.1894 N   0  0  0  0  0  0  0  0  0  0  0  0
    8.5686   12.6974   24.3601 C   0  0  0  0  0  0  0  0  0  0  0  0
  2  1  1  6
  2  3  1  0
  3  4  3  0
  2  5  1  0
  5  6  2  0
  5  7  1  0
  7  8  1  0
  8  9  2  0
  9 10  1  0
 10 11  2  0
 11 12  1  0
 12 13  1  0
 12 14  2  0
 11 15  1  0
 15 16  2  0
 16  8  1  0
M  END
>  <distance_score>  (87) 
1.658902

>  <ref_pdb>  (87) 
A0310a

>  <ref_mols>  (87) 
A0556a,A0310a

>  <alias>  (87) 
None

>  <original SMILES>  (87) 
C[C@@H](C#N)C(=O)Nc1ccc(C(N)=O)nc1

>  <inchikey>  (87) 
OYQPMKKUMAALNJ-LURJTMIESA-N

>  <exports>  (87) 
['/opt/xchem-fragalysis-2/maxwin/2A_HIPPO/hippo/A71EV2A_10_recipes/Recipe_1LPVPY0_poses.sdf']

>  <original ID>  (87) 
OYQPMKKUMAALNJ-LURJTMIESA-N

>  <energy_score>  (87) 
-30.173963

>  <tags>  (87) 
[]

>  <HIPPO ID>  (87) 
78830

>  <name>  (87) 
OYQPMKKUMAALNJ-LURJTMIESA-N

$$$$
YLNHFSUKIKSVSZ-VGOFMYFVSA-N
     RDKit          3D

 17 17  0  0  0  0  0  0  0  0999 V2000
   11.7626   16.8331   22.7713 N   0  0  0  0  0  0  0  0  0  0  0  0
   11.7761   15.6891   22.5778 C   0  0  0  0  0  0  0  0  0  0  0  0
   11.7439   14.2700   22.3690 C   0  0  0  0  0  0  0  0  0  0  0  0
   12.2319   13.7830   21.2712 N   0  0  0  0  0  0  0  0  0  0  0  0
   12.5811   14.7965   20.3664 O   0  0  0  0  0  0  0  0  0  0  0  0
   11.1183   13.4077   23.4085 C   0  0  0  0  0  0  0  0  0  0  0  0
   11.1905   13.7645   24.5802 O   0  0  0  0  0  0  0  0  0  0  0  0
   10.4137   12.3087   22.9562 N   0  0  0  0  0  0  0  0  0  0  0  0
    9.3520   11.8205   23.7270 C   0  0  0  0  0  0  0  0  0  0  0  0
    9.0380   10.4743   23.7976 C   0  0  0  0  0  0  0  0  0  0  0  0
    8.0113   10.0820   24.6664 C   0  0  0  0  0  0  0  0  0  0  0  0
    7.2875   11.0597   25.3652 C   0  0  0  0  0  0  0  0  0  0  0  0
    6.1196   10.8206   26.2779 C   0  0  0  0  0  0  0  0  0  0  0  0
    5.6902    9.5536   26.4708 N   0  0  0  0  0  0  0  0  0  0  0  0
    5.5264   11.7196   26.8661 O   0  0  0  0  0  0  0  0  0  0  0  0
    7.5676   12.3675   25.2628 N   0  0  0  0  0  0  0  0  0  0  0  0
    8.5780   12.7147   24.4645 C   0  0  0  0  0  0  0  0  0  0  0  0
  1  2  3  0
  2  3  1  0
  3  4  2  0
  4  5  1  0
  3  6  1  0
  6  7  2  0
  6  8  1  0
  8  9  1  0
  9 10  2  0
 10 11  1  0
 11 12  2  0
 12 13  1  0
 13 14  1  0
 13 15  2  0
 12 16  1  0
 16 17  2  0
 17  9  1  0
M  END
>  <distance_score>  (88) 
1.616872

>  <ref_pdb>  (88) 
A0310a

>  <ref_mols>  (88) 
A0556a,A0310a

>  <alias>  (88) 
None

>  <original SMILES>  (88) 
N#C/C(=N\O)C(=O)Nc1ccc(C(N)=O)nc1

>  <inchikey>  (88) 
YLNHFSUKIKSVSZ-VGOFMYFVSA-N

>  <exports>  (88) 
['/opt/xchem-fragalysis-2/maxwin/2A_HIPPO/hippo/A71EV2A_10_recipes/Recipe_1LPVPY0_poses.sdf']

>  <original ID>  (88) 
YLNHFSUKIKSVSZ-VGOFMYFVSA-N

>  <energy_score>  (88) 
-14.351396

>  <tags>  (88) 
[]

>  <HIPPO ID>  (88) 
79057

>  <name>  (88) 
YLNHFSUKIKSVSZ-VGOFMYFVSA-N

$$$$
YLNHFSUKIKSVSZ-AUWJEWJLSA-N
     RDKit          3D

 17 17  0  0  0  0  0  0  0  0999 V2000
   11.9235   16.5581   22.2059 N   0  0  0  0  0  0  0  0  0  0  0  0
   11.9213   15.4527   22.5548 C   0  0  0  0  0  0  0  0  0  0  0  0
   11.7971   14.1445   23.1055 C   0  0  0  0  0  0  0  0  0  0  0  0
   12.9016   13.4897   23.2521 N   0  0  0  0  0  0  0  0  0  0  0  0
   12.6810   12.3311   23.9954 O   0  0  0  0  0  0  0  0  0  0  0  0
   10.5133   13.6730   23.6572 C   0  0  0  0  0  0  0  0  0  0  0  0
   10.0878   14.2908   24.6277 O   0  0  0  0  0  0  0  0  0  0  0  0
    9.9962   12.5081   23.1069 N   0  0  0  0  0  0  0  0  0  0  0  0
    8.8973   11.9352   23.7552 C   0  0  0  0  0  0  0  0  0  0  0  0
    8.8400   10.5755   24.0139 C   0  0  0  0  0  0  0  0  0  0  0  0
    7.8546   10.1237   24.8944 C   0  0  0  0  0  0  0  0  0  0  0  0
    6.9454   11.0422   25.4361 C   0  0  0  0  0  0  0  0  0  0  0  0
    5.9016   10.7501   26.4712 C   0  0  0  0  0  0  0  0  0  0  0  0
    5.8801    9.5231   27.0428 N   0  0  0  0  0  0  0  0  0  0  0  0
    5.0743   11.5732   26.8499 O   0  0  0  0  0  0  0  0  0  0  0  0
    6.9377   12.3363   25.0876 N   0  0  0  0  0  0  0  0  0  0  0  0
    7.8916   12.7531   24.2591 C   0  0  0  0  0  0  0  0  0  0  0  0
  1  2  3  0
  2  3  1  0
  3  4  2  0
  4  5  1  0
  3  6  1  0
  6  7  2  0
  6  8  1  0
  8  9  1  0
  9 10  2  0
 10 11  1  0
 11 12  2  0
 12 13  1  0
 13 14  1  0
 13 15  2  0
 12 16  1  0
 16 17  2  0
 17  9  1  0
M  END
>  <distance_score>  (89) 
1.518517

>  <ref_pdb>  (89) 
A0310a

>  <ref_mols>  (89) 
A0556a,A0310a

>  <alias>  (89) 
None

>  <original SMILES>  (89) 
N#C/C(=N/O)C(=O)Nc1ccc(C(N)=O)nc1

>  <inchikey>  (89) 
YLNHFSUKIKSVSZ-AUWJEWJLSA-N

>  <exports>  (89) 
['/opt/xchem-fragalysis-2/maxwin/2A_HIPPO/hippo/A71EV2A_10_recipes/Recipe_1LPVPY0_poses.sdf']

>  <original ID>  (89) 
YLNHFSUKIKSVSZ-AUWJEWJLSA-N

>  <energy_score>  (89) 
-29.888193

>  <tags>  (89) 
[]

>  <HIPPO ID>  (89) 
79058

>  <name>  (89) 
YLNHFSUKIKSVSZ-AUWJEWJLSA-N

$$$$
AVFCIYJQPBUBMO-UHFFFAOYSA-N
     RDKit          3D

 17 17  0  0  0  0  0  0  0  0999 V2000
    5.7405   10.2987   28.0292 C   0  0  0  0  0  0  0  0  0  0  0  0
    6.5777   10.9703   27.0773 N   0  0  0  0  0  0  0  0  0  0  0  0
    6.6848   12.4125   27.1976 C   0  0  0  0  0  0  0  0  0  0  0  0
    6.5575   10.3868   25.8240 C   0  0  0  0  0  0  0  0  0  0  0  0
    5.7886    9.4822   25.5416 O   0  0  0  0  0  0  0  0  0  0  0  0
    7.5448   10.8470   24.8366 C   0  0  0  0  0  0  0  0  0  0  0  0
    8.4296    9.9450   24.2425 C   0  0  0  0  0  0  0  0  0  0  0  0
    9.4241   10.4611   23.4313 C   0  0  0  0  0  0  0  0  0  0  0  0
    9.5129   11.8425   23.3351 C   0  0  0  0  0  0  0  0  0  0  0  0
   10.6120   12.4489   22.7417 N   0  0  0  0  0  0  0  0  0  0  0  0
   11.1737   13.5596   23.3399 C   0  0  0  0  0  0  0  0  0  0  0  0
   10.8808   13.9412   24.4754 O   0  0  0  0  0  0  0  0  0  0  0  0
   12.2090   14.2482   22.5169 C   0  0  0  0  0  0  0  0  0  0  0  0
   11.9670   15.6774   22.5498 C   0  0  0  0  0  0  0  0  0  0  0  0
   11.7594   16.8161   22.5968 N   0  0  0  0  0  0  0  0  0  0  0  0
    8.5203   12.6468   23.8841 C   0  0  0  0  0  0  0  0  0  0  0  0
    7.5162   12.1731   24.6046 N   0  0  0  0  0  0  0  0  0  0  0  0
  1  2  1  0
  2  3  1  0
  2  4  1  0
  4  5  2  0
  4  6  1  0
  6  7  2  0
  7  8  1  0
  8  9  2  0
  9 10  1  0
 10 11  1  0
 11 12  2  0
 11 13  1  0
 13 14  1  0
 14 15  3  0
  9 16  1  0
 16 17  2  0
 17  6  1  0
M  END
>  <distance_score>  (90) 
1.88129

>  <ref_pdb>  (90) 
A0310a

>  <ref_mols>  (90) 
A0556a,A0310a

>  <alias>  (90) 
None

>  <original SMILES>  (90) 
CN(C)C(=O)c1ccc(NC(=O)CC#N)cn1

>  <inchikey>  (90) 
AVFCIYJQPBUBMO-UHFFFAOYSA-N

>  <exports>  (90) 
['/opt/xchem-fragalysis-2/maxwin/2A_HIPPO/hippo/A71EV2A_10_recipes/Recipe_1LPVPY0_poses.sdf']

>  <original ID>  (90) 
AVFCIYJQPBUBMO-UHFFFAOYSA-N

>  <energy_score>  (90) 
-283.288133

>  <tags>  (90) 
[]

>  <HIPPO ID>  (90) 
79158

>  <name>  (90) 
AVFCIYJQPBUBMO-UHFFFAOYSA-N

$$$$
VIZBWGMXMVZQAJ-UHFFFAOYSA-N
     RDKit          3D

 17 17  0  0  0  0  0  0  0  0999 V2000
    7.6351   14.5446   25.6686 C   0  0  0  0  0  0  0  0  0  0  0  0
    8.3737   13.9493   24.5925 O   0  0  0  0  0  0  0  0  0  0  0  0
    8.3178   12.5817   24.6567 C   0  0  0  0  0  0  0  0  0  0  0  0
    7.3773   12.1085   25.4669 N   0  0  0  0  0  0  0  0  0  0  0  0
    7.1560   10.8044   25.5337 C   0  0  0  0  0  0  0  0  0  0  0  0
    6.0007   10.5578   26.4530 C   0  0  0  0  0  0  0  0  0  0  0  0
    5.3932    9.3550   26.4344 N   0  0  0  0  0  0  0  0  0  0  0  0
    5.5508   11.4155   27.2074 O   0  0  0  0  0  0  0  0  0  0  0  0
    7.9017    9.9024   24.7804 C   0  0  0  0  0  0  0  0  0  0  0  0
    8.8864   10.3919   23.9109 C   0  0  0  0  0  0  0  0  0  0  0  0
    9.1189   11.7639   23.8570 C   0  0  0  0  0  0  0  0  0  0  0  0
   10.1245   12.2724   23.0142 N   0  0  0  0  0  0  0  0  0  0  0  0
   10.9370   13.3116   23.4402 C   0  0  0  0  0  0  0  0  0  0  0  0
   11.0740   13.6160   24.6248 O   0  0  0  0  0  0  0  0  0  0  0  0
   11.6952   13.9863   22.3309 C   0  0  0  0  0  0  0  0  0  0  0  0
   11.7857   15.4159   22.5898 C   0  0  0  0  0  0  0  0  0  0  0  0
   11.8014   16.5620   22.7637 N   0  0  0  0  0  0  0  0  0  0  0  0
  1  2  1  0
  2  3  1  0
  3  4  2  0
  4  5  1  0
  5  6  1  0
  6  7  1  0
  6  8  2  0
  5  9  2  0
  9 10  1  0
 10 11  2  0
 11 12  1  0
 12 13  1  0
 13 14  2  0
 13 15  1  0
 15 16  1  0
 16 17  3  0
 11  3  1  0
M  END
>  <distance_score>  (91) 
1.226433

>  <ref_pdb>  (91) 
A0310a

>  <ref_mols>  (91) 
A0556a,A0310a

>  <alias>  (91) 
None

>  <original SMILES>  (91) 
COc1nc(C(N)=O)ccc1NC(=O)CC#N

>  <inchikey>  (91) 
VIZBWGMXMVZQAJ-UHFFFAOYSA-N

>  <exports>  (91) 
['/opt/xchem-fragalysis-2/maxwin/2A_HIPPO/hippo/A71EV2A_10_recipes/Recipe_1LPVPY0_poses.sdf']

>  <original ID>  (91) 
VIZBWGMXMVZQAJ-UHFFFAOYSA-N

>  <energy_score>  (91) 
-64.440777

>  <tags>  (91) 
[]

>  <HIPPO ID>  (91) 
79174

>  <name>  (91) 
VIZBWGMXMVZQAJ-UHFFFAOYSA-N

$$$$
PVTHXGYEQAQPMN-GFCCVEGCSA-N
     RDKit          3D

 18 18  0  0  0  0  0  0  0  0999 V2000
   10.3474   11.1511   23.2931 C   0  0  0  0  0  0  0  0  0  0  0  0
   10.7596   12.4131   22.5393 C   0  0  0  0  0  0  0  0  0  0  0  0
   10.7715   13.8208   23.1054 C   0  0  2  0  0  0  0  0  0  0  0  0
   10.6590   14.7975   21.9198 C   0  0  0  0  0  0  0  0  0  0  0  0
   12.0101   14.1247   23.8127 C   0  0  0  0  0  0  0  0  0  0  0  0
   12.9858   14.3774   24.3811 N   0  0  0  0  0  0  0  0  0  0  0  0
    9.6034   13.8778   24.0574 C   0  0  0  0  0  0  0  0  0  0  0  0
    9.7061   14.2254   25.2322 O   0  0  0  0  0  0  0  0  0  0  0  0
    8.3909   13.4291   23.5056 N   0  0  0  0  0  0  0  0  0  0  0  0
    7.5674   12.7122   24.4093 C   0  0  0  0  0  0  0  0  0  0  0  0
    6.7672   13.3780   25.3189 C   0  0  0  0  0  0  0  0  0  0  0  0
    6.0984   12.6309   26.2766 C   0  0  0  0  0  0  0  0  0  0  0  0
    6.2578   11.2478   26.2588 C   0  0  0  0  0  0  0  0  0  0  0  0
    5.5940   10.4127   27.2593 C   0  0  0  0  0  0  0  0  0  0  0  0
    6.0949   10.4822   28.5272 N   0  0  0  0  0  0  0  0  0  0  0  0
    4.6328    9.7177   26.9763 O   0  0  0  0  0  0  0  0  0  0  0  0
    6.9987   10.5621   25.3802 N   0  0  0  0  0  0  0  0  0  0  0  0
    7.6005   11.3193   24.4632 C   0  0  0  0  0  0  0  0  0  0  0  0
  1  2  1  0
  2  3  1  0
  3  4  1  6
  3  5  1  0
  5  6  3  0
  3  7  1  0
  7  8  2  0
  7  9  1  0
  9 10  1  0
 10 11  2  0
 11 12  1  0
 12 13  2  0
 13 14  1  0
 14 15  1  0
 14 16  2  0
 13 17  1  0
 17 18  2  0
 18 10  1  0
M  END
>  <distance_score>  (92) 
2.109084

>  <ref_pdb>  (92) 
A0310a

>  <ref_mols>  (92) 
A0556a,A0310a

>  <alias>  (92) 
None

>  <original SMILES>  (92) 
CC[C@](C)(C#N)C(=O)Nc1ccc(C(N)=O)nc1

>  <inchikey>  (92) 
PVTHXGYEQAQPMN-GFCCVEGCSA-N

>  <exports>  (92) 
['/opt/xchem-fragalysis-2/maxwin/2A_HIPPO/hippo/A71EV2A_10_recipes/Recipe_1LPUPHX_poses.sdf', '/opt/xchem-fragalysis-2/maxwin/2A_HIPPO/hippo/A71EV2A_10_recipes/Recipe_1LPVPY0_poses.sdf']

>  <original ID>  (92) 
PVTHXGYEQAQPMN-GFCCVEGCSA-N

>  <energy_score>  (92) 
42.933355

>  <tags>  (92) 
[]

>  <HIPPO ID>  (92) 
79774

>  <name>  (92) 
PVTHXGYEQAQPMN-GFCCVEGCSA-N

$$$$
PVTHXGYEQAQPMN-LBPRGKRZSA-N
     RDKit          3D

 18 18  0  0  0  0  0  0  0  0999 V2000
   10.4644   11.5326   22.7593 C   0  0  0  0  0  0  0  0  0  0  0  0
   11.1160   12.8865   22.3596 C   0  0  0  0  0  0  0  0  0  0  0  0
   11.3319   13.8981   23.4797 C   0  0  1  0  0  0  0  0  0  0  0  0
   12.5699   13.5127   24.2948 C   0  0  0  0  0  0  0  0  0  0  0  0
   11.5757   15.2465   22.9428 C   0  0  0  0  0  0  0  0  0  0  0  0
   11.7788   16.3168   22.5470 N   0  0  0  0  0  0  0  0  0  0  0  0
   10.1211   13.9541   24.4029 C   0  0  0  0  0  0  0  0  0  0  0  0
   10.2318   14.3144   25.5748 O   0  0  0  0  0  0  0  0  0  0  0  0
    8.8996   13.5515   23.8601 N   0  0  0  0  0  0  0  0  0  0  0  0
    8.0426   12.7928   24.6820 C   0  0  0  0  0  0  0  0  0  0  0  0
    7.4744   13.3872   25.7946 C   0  0  0  0  0  0  0  0  0  0  0  0
    6.6901   12.6216   26.6341 C   0  0  0  0  0  0  0  0  0  0  0  0
    6.5124   11.2826   26.3157 C   0  0  0  0  0  0  0  0  0  0  0  0
    5.7311   10.4283   27.2198 C   0  0  0  0  0  0  0  0  0  0  0  0
    5.1221    9.3576   26.6433 N   0  0  0  0  0  0  0  0  0  0  0  0
    5.6806   10.6439   28.4209 O   0  0  0  0  0  0  0  0  0  0  0  0
    7.0462   10.6542   25.2480 N   0  0  0  0  0  0  0  0  0  0  0  0
    7.7885   11.4371   24.4550 C   0  0  0  0  0  0  0  0  0  0  0  0
  1  2  1  0
  2  3  1  0
  3  4  1  1
  3  5  1  0
  5  6  3  0
  3  7  1  0
  7  8  2  0
  7  9  1  0
  9 10  1  0
 10 11  2  0
 11 12  1  0
 12 13  2  0
 13 14  1  0
 14 15  1  0
 14 16  2  0
 13 17  1  0
 17 18  2  0
 18 10  1  0
M  END
>  <distance_score>  (93) 
2.04239

>  <ref_pdb>  (93) 
A0310a

>  <ref_mols>  (93) 
A0556a,A0310a

>  <alias>  (93) 
None

>  <original SMILES>  (93) 
CC[C@@](C)(C#N)C(=O)Nc1ccc(C(N)=O)nc1

>  <inchikey>  (93) 
PVTHXGYEQAQPMN-LBPRGKRZSA-N

>  <exports>  (93) 
['/opt/xchem-fragalysis-2/maxwin/2A_HIPPO/hippo/A71EV2A_10_recipes/Recipe_1LPUPHX_poses.sdf', '/opt/xchem-fragalysis-2/maxwin/2A_HIPPO/hippo/A71EV2A_10_recipes/Recipe_1LPVPY0_poses.sdf']

>  <original ID>  (93) 
PVTHXGYEQAQPMN-LBPRGKRZSA-N

>  <energy_score>  (93) 
14.997717

>  <tags>  (93) 
[]

>  <HIPPO ID>  (93) 
79775

>  <name>  (93) 
PVTHXGYEQAQPMN-LBPRGKRZSA-N

$$$$
WNOMXLFLQFUFSR-ZCFIWIBFSA-N
     RDKit          3D

 18 18  0  0  0  0  0  0  0  0999 V2000
    7.7045   14.6151   25.6730 C   0  0  0  0  0  0  0  0  0  0  0  0
    8.0552   14.0283   24.4155 O   0  0  0  0  0  0  0  0  0  0  0  0
    8.0303   12.6648   24.5300 C   0  0  0  0  0  0  0  0  0  0  0  0
    7.0583   12.1994   25.3037 N   0  0  0  0  0  0  0  0  0  0  0  0
    6.9707   10.8921   25.5071 C   0  0  0  0  0  0  0  0  0  0  0  0
    5.8721   10.6198   26.4850 C   0  0  0  0  0  0  0  0  0  0  0  0
    5.4154    9.3608   26.6259 N   0  0  0  0  0  0  0  0  0  0  0  0
    5.3495   11.4983   27.1645 O   0  0  0  0  0  0  0  0  0  0  0  0
    7.8126    9.9893   24.8550 C   0  0  0  0  0  0  0  0  0  0  0  0
    8.8008   10.4762   23.9881 C   0  0  0  0  0  0  0  0  0  0  0  0
    8.9485   11.8530   23.8592 C   0  0  0  0  0  0  0  0  0  0  0  0
   10.0700   12.3842   23.1859 N   0  0  0  0  0  0  0  0  0  0  0  0
   10.7858   13.3836   23.8273 C   0  0  0  0  0  0  0  0  0  0  0  0
   10.5216   13.7934   24.9618 O   0  0  0  0  0  0  0  0  0  0  0  0
   12.0267   13.8706   23.1445 C   0  0  2  0  0  0  0  0  0  0  0  0
   13.1134   13.6997   24.2019 C   0  0  0  0  0  0  0  0  0  0  0  0
   11.8731   15.2846   22.8092 C   0  0  0  0  0  0  0  0  0  0  0  0
   11.7768   16.4130   22.5609 N   0  0  0  0  0  0  0  0  0  0  0  0
  1  2  1  0
  2  3  1  0
  3  4  2  0
  4  5  1  0
  5  6  1  0
  6  7  1  0
  6  8  2  0
  5  9  2  0
  9 10  1  0
 10 11  2  0
 11 12  1  0
 12 13  1  0
 13 14  2  0
 13 15  1  0
 15 16  1  1
 15 17  1  0
 17 18  3  0
 11  3  1  0
M  END
>  <distance_score>  (94) 
1.265395

>  <ref_pdb>  (94) 
A0310a

>  <ref_mols>  (94) 
A0556a,A0310a

>  <alias>  (94) 
None

>  <original SMILES>  (94) 
COc1nc(C(N)=O)ccc1NC(=O)[C@H](C)C#N

>  <inchikey>  (94) 
WNOMXLFLQFUFSR-ZCFIWIBFSA-N

>  <exports>  (94) 
['/opt/xchem-fragalysis-2/maxwin/2A_HIPPO/hippo/A71EV2A_10_recipes/Recipe_1LPVPY0_poses.sdf']

>  <original ID>  (94) 
WNOMXLFLQFUFSR-ZCFIWIBFSA-N

>  <energy_score>  (94) 
9.271728

>  <tags>  (94) 
[]

>  <HIPPO ID>  (94) 
80665

>  <name>  (94) 
WNOMXLFLQFUFSR-ZCFIWIBFSA-N

$$$$
WNOMXLFLQFUFSR-LURJTMIESA-N
     RDKit          3D

 18 18  0  0  0  0  0  0  0  0999 V2000
    7.2115   14.4001   25.2858 C   0  0  0  0  0  0  0  0  0  0  0  0
    8.2495   13.9051   24.4297 O   0  0  0  0  0  0  0  0  0  0  0  0
    8.3755   12.5391   24.5089 C   0  0  0  0  0  0  0  0  0  0  0  0
    7.5419   11.9489   25.3613 N   0  0  0  0  0  0  0  0  0  0  0  0
    7.4303   10.6190   25.3222 C   0  0  0  0  0  0  0  0  0  0  0  0
    6.3417   10.2155   26.2548 C   0  0  0  0  0  0  0  0  0  0  0  0
    6.3324   10.9229   27.4256 N   0  0  0  0  0  0  0  0  0  0  0  0
    5.4219    9.4707   25.9827 O   0  0  0  0  0  0  0  0  0  0  0  0
    8.1937    9.8160   24.4867 C   0  0  0  0  0  0  0  0  0  0  0  0
    9.1225   10.4384   23.6424 C   0  0  0  0  0  0  0  0  0  0  0  0
    9.2418   11.8306   23.6650 C   0  0  0  0  0  0  0  0  0  0  0  0
   10.2202   12.4695   22.8675 N   0  0  0  0  0  0  0  0  0  0  0  0
   10.9642   13.5076   23.4015 C   0  0  0  0  0  0  0  0  0  0  0  0
   10.9776   13.7372   24.6170 O   0  0  0  0  0  0  0  0  0  0  0  0
   11.8775   14.2881   22.4653 C   0  0  1  0  0  0  0  0  0  0  0  0
   11.6154   14.2242   20.9725 C   0  0  0  0  0  0  0  0  0  0  0  0
   11.8057   15.6975   22.8337 C   0  0  0  0  0  0  0  0  0  0  0  0
   11.7132   16.8363   23.0226 N   0  0  0  0  0  0  0  0  0  0  0  0
  1  2  1  0
  2  3  1  0
  3  4  2  0
  4  5  1  0
  5  6  1  0
  6  7  1  0
  6  8  2  0
  5  9  2  0
  9 10  1  0
 10 11  2  0
 11 12  1  0
 12 13  1  0
 13 14  2  0
 13 15  1  0
 15 16  1  6
 15 17  1  0
 17 18  3  0
 11  3  1  0
M  END
>  <distance_score>  (95) 
1.65018

>  <ref_pdb>  (95) 
A0310a

>  <ref_mols>  (95) 
A0556a,A0310a

>  <alias>  (95) 
None

>  <original SMILES>  (95) 
COc1nc(C(N)=O)ccc1NC(=O)[C@@H](C)C#N

>  <inchikey>  (95) 
WNOMXLFLQFUFSR-LURJTMIESA-N

>  <exports>  (95) 
['/opt/xchem-fragalysis-2/maxwin/2A_HIPPO/hippo/A71EV2A_10_recipes/Recipe_1LPVPY0_poses.sdf']

>  <original ID>  (95) 
WNOMXLFLQFUFSR-LURJTMIESA-N

>  <energy_score>  (95) 
-13.022849

>  <tags>  (95) 
[]

>  <HIPPO ID>  (95) 
80666

>  <name>  (95) 
WNOMXLFLQFUFSR-LURJTMIESA-N

$$$$
WOMBAWDYCZOTJU-MRVPVSSYSA-N
     RDKit          3D

 18 18  0  0  0  0  0  0  0  0999 V2000
   12.2813   14.2068   20.7031 C   0  0  0  0  0  0  0  0  0  0  0  0
   11.2701   14.7311   21.6587 C   0  0  2  0  0  0  0  0  0  0  0  0
   11.6938   15.8858   22.4168 C   0  0  0  0  0  0  0  0  0  0  0  0
   11.8173   16.8814   22.9895 N   0  0  0  0  0  0  0  0  0  0  0  0
   10.8184   13.6932   22.6455 C   0  0  0  0  0  0  0  0  0  0  0  0
   11.4982   13.2916   23.5835 O   0  0  0  0  0  0  0  0  0  0  0  0
    9.4884   13.4065   22.4176 N   0  0  0  0  0  0  0  0  0  0  0  0
    8.6096   13.1530   23.4512 C   0  0  0  0  0  0  0  0  0  0  0  0
    7.2891   13.5178   23.2713 C   0  0  0  0  0  0  0  0  0  0  0  0
    6.3911   13.3064   24.2975 C   0  0  0  0  0  0  0  0  0  0  0  0
    6.8430   12.6788   25.4309 C   0  0  0  0  0  0  0  0  0  0  0  0
    5.9055   11.8355   26.2011 C   0  0  0  0  0  0  0  0  0  0  0  0
    4.9521   12.3334   26.7868 O   0  0  0  0  0  0  0  0  0  0  0  0
    6.2005   10.4799   26.1603 N   0  0  0  0  0  0  0  0  0  0  0  0
    7.2518    9.9149   25.3313 C   0  0  0  0  0  0  0  0  0  0  0  0
    5.4815    9.6010   27.0345 C   0  0  0  0  0  0  0  0  0  0  0  0
    8.1412   12.4263   25.6680 N   0  0  0  0  0  0  0  0  0  0  0  0
    8.9964   12.6525   24.6679 C   0  0  0  0  0  0  0  0  0  0  0  0
  2  1  1  1
  2  3  1  0
  3  4  3  0
  2  5  1  0
  5  6  2  0
  5  7  1  0
  7  8  1  0
  8  9  2  0
  9 10  1  0
 10 11  2  0
 11 12  1  0
 12 13  2  0
 12 14  1  0
 14 15  1  0
 14 16  1  0
 11 17  1  0
 17 18  2  0
 18  8  1  0
M  END
>  <distance_score>  (96) 
2.460093

>  <ref_pdb>  (96) 
A0310a

>  <ref_mols>  (96) 
A0556a,A0310a

>  <alias>  (96) 
None

>  <original SMILES>  (96) 
C[C@H](C#N)C(=O)Nc1ccc(C(=O)N(C)C)nc1

>  <inchikey>  (96) 
WOMBAWDYCZOTJU-MRVPVSSYSA-N

>  <exports>  (96) 
['/opt/xchem-fragalysis-2/maxwin/2A_HIPPO/hippo/A71EV2A_10_recipes/Recipe_1LPVPY0_poses.sdf']

>  <original ID>  (96) 
WOMBAWDYCZOTJU-MRVPVSSYSA-N

>  <energy_score>  (96) 
13.528659

>  <tags>  (96) 
[]

>  <HIPPO ID>  (96) 
80754

>  <name>  (96) 
WOMBAWDYCZOTJU-MRVPVSSYSA-N

$$$$
WOMBAWDYCZOTJU-QMMMGPOBSA-N
     RDKit          3D

 18 18  0  0  0  0  0  0  0  0999 V2000
   11.7918   14.2778   20.7863 C   0  0  0  0  0  0  0  0  0  0  0  0
   12.0371   14.3842   22.2777 C   0  0  1  0  0  0  0  0  0  0  0  0
   11.8756   15.7841   22.6534 C   0  0  0  0  0  0  0  0  0  0  0  0
   11.7231   16.9061   22.8953 N   0  0  0  0  0  0  0  0  0  0  0  0
   11.1554   13.5660   23.1881 C   0  0  0  0  0  0  0  0  0  0  0  0
   11.1079   13.8065   24.4007 O   0  0  0  0  0  0  0  0  0  0  0  0
   10.4260   12.5298   22.6329 N   0  0  0  0  0  0  0  0  0  0  0  0
    9.3306   12.0728   23.3659 C   0  0  0  0  0  0  0  0  0  0  0  0
    9.1565   10.7412   23.7119 C   0  0  0  0  0  0  0  0  0  0  0  0
    8.2769   10.4743   24.7591 C   0  0  0  0  0  0  0  0  0  0  0  0
    7.5960   11.5527   25.3333 C   0  0  0  0  0  0  0  0  0  0  0  0
    6.9548   11.5443   26.6707 C   0  0  0  0  0  0  0  0  0  0  0  0
    7.3578   12.2741   27.5715 O   0  0  0  0  0  0  0  0  0  0  0  0
    5.7154   11.0030   26.7678 N   0  0  0  0  0  0  0  0  0  0  0  0
    4.6798   11.9747   26.5729 C   0  0  0  0  0  0  0  0  0  0  0  0
    5.5301    9.6163   26.5090 C   0  0  0  0  0  0  0  0  0  0  0  0
    7.5892   12.8029   24.8366 N   0  0  0  0  0  0  0  0  0  0  0  0
    8.4712   13.0396   23.8808 C   0  0  0  0  0  0  0  0  0  0  0  0
  2  1  1  6
  2  3  1  0
  3  4  3  0
  2  5  1  0
  5  6  2  0
  5  7  1  0
  7  8  1  0
  8  9  2  0
  9 10  1  0
 10 11  2  0
 11 12  1  0
 12 13  2  0
 12 14  1  0
 14 15  1  0
 14 16  1  0
 11 17  1  0
 17 18  2  0
 18  8  1  0
M  END
>  <distance_score>  (97) 
2.172267

>  <ref_pdb>  (97) 
A0310a

>  <ref_mols>  (97) 
A0556a,A0310a

>  <alias>  (97) 
None

>  <original SMILES>  (97) 
C[C@@H](C#N)C(=O)Nc1ccc(C(=O)N(C)C)nc1

>  <inchikey>  (97) 
WOMBAWDYCZOTJU-QMMMGPOBSA-N

>  <exports>  (97) 
['/opt/xchem-fragalysis-2/maxwin/2A_HIPPO/hippo/A71EV2A_10_recipes/Recipe_1LPVPY0_poses.sdf']

>  <original ID>  (97) 
WOMBAWDYCZOTJU-QMMMGPOBSA-N

>  <energy_score>  (97) 
41.660873

>  <tags>  (97) 
[]

>  <HIPPO ID>  (97) 
80755

>  <name>  (97) 
WOMBAWDYCZOTJU-QMMMGPOBSA-N

$$$$
DHFLVNKXACFRPV-UHFFFAOYSA-N
     RDKit          3D

 19 20  0  0  0  0  0  0  0  0999 V2000
    7.2669   14.2540   25.2789 C   0  0  0  0  0  0  0  0  0  0  0  0
    8.3847   13.8236   24.4913 O   0  0  0  0  0  0  0  0  0  0  0  0
    8.5628   12.4594   24.5342 C   0  0  0  0  0  0  0  0  0  0  0  0
    7.7737   11.8141   25.3846 N   0  0  0  0  0  0  0  0  0  0  0  0
    7.6722   10.4937   25.2151 C   0  0  0  0  0  0  0  0  0  0  0  0
    6.4960    9.9969   25.9374 C   0  0  0  0  0  0  0  0  0  0  0  0
    6.1813   10.6259   27.1129 N   0  0  0  0  0  0  0  0  0  0  0  0
    5.7538    9.1871   25.4191 O   0  0  0  0  0  0  0  0  0  0  0  0
    8.4138    9.7439   24.3095 C   0  0  0  0  0  0  0  0  0  0  0  0
    9.3136   10.4198   23.4997 C   0  0  0  0  0  0  0  0  0  0  0  0
    9.4036   11.8046   23.6174 C   0  0  0  0  0  0  0  0  0  0  0  0
   10.2865   12.4938   22.7800 N   0  0  0  0  0  0  0  0  0  0  0  0
   10.9437   13.6222   23.2198 C   0  0  0  0  0  0  0  0  0  0  0  0
   11.1616   13.8400   24.4110 O   0  0  0  0  0  0  0  0  0  0  0  0
   11.3763   14.5940   22.1719 C   0  0  0  0  0  0  0  0  0  0  0  0
   11.6560   15.9007   22.6672 C   0  0  0  0  0  0  0  0  0  0  0  0
   11.7561   17.0151   22.9599 N   0  0  0  0  0  0  0  0  0  0  0  0
   10.6609   14.5978   20.8199 C   0  0  0  0  0  0  0  0  0  0  0  0
   12.0981   14.1942   20.9148 C   0  0  0  0  0  0  0  0  0  0  0  0
  1  2  1  0
  2  3  1  0
  3  4  2  0
  4  5  1  0
  5  6  1  0
  6  7  1  0
  6  8  2  0
  5  9  2  0
  9 10  1  0
 10 11  2  0
 11 12  1  0
 12 13  1  0
 13 14  2  0
 13 15  1  0
 15 16  1  0
 16 17  3  0
 15 18  1  0
 18 19  1  0
 11  3  1  0
 19 15  1  0
M  END
>  <distance_score>  (98) 
1.180738

>  <ref_pdb>  (98) 
A0310a

>  <ref_mols>  (98) 
A0556a,A0310a

>  <alias>  (98) 
None

>  <original SMILES>  (98) 
COc1nc(C(N)=O)ccc1NC(=O)C1(C#N)CC1

>  <inchikey>  (98) 
DHFLVNKXACFRPV-UHFFFAOYSA-N

>  <exports>  (98) 
['/opt/xchem-fragalysis-2/maxwin/2A_HIPPO/hippo/A71EV2A_10_recipes/Recipe_1LPVPY0_poses.sdf']

>  <original ID>  (98) 
DHFLVNKXACFRPV-UHFFFAOYSA-N

>  <energy_score>  (98) 
-8.790774

>  <tags>  (98) 
[]

>  <HIPPO ID>  (98) 
81292

>  <name>  (98) 
DHFLVNKXACFRPV-UHFFFAOYSA-N

$$$$
DTAPSOTUKJTRJU-UHFFFAOYSA-N
     RDKit          3D

 19 20  0  0  0  0  0  0  0  0999 V2000
    7.6233    9.7492   25.4375 C   0  0  0  0  0  0  0  0  0  0  0  0
    6.4699   10.2901   26.1662 N   0  0  0  0  0  0  0  0  0  0  0  0
    5.6196    9.4524   26.9616 C   0  0  0  0  0  0  0  0  0  0  0  0
    6.0184   11.5971   26.0338 C   0  0  0  0  0  0  0  0  0  0  0  0
    5.1555   12.1152   26.7341 O   0  0  0  0  0  0  0  0  0  0  0  0
    6.7525   12.4125   25.0687 C   0  0  0  0  0  0  0  0  0  0  0  0
    7.3058   13.5614   25.5593 C   0  0  0  0  0  0  0  0  0  0  0  0
    8.4807   13.9271   24.9605 C   0  0  0  0  0  0  0  0  0  0  0  0
    9.0185   13.1462   23.9306 C   0  0  0  0  0  0  0  0  0  0  0  0
   10.1845   13.4267   23.2776 N   0  0  0  0  0  0  0  0  0  0  0  0
   11.0217   14.3638   23.7619 C   0  0  0  0  0  0  0  0  0  0  0  0
   11.1854   14.6343   24.9453 O   0  0  0  0  0  0  0  0  0  0  0  0
   11.7685   15.0228   22.7083 C   0  0  0  0  0  0  0  0  0  0  0  0
   11.6457   16.4207   22.6288 C   0  0  0  0  0  0  0  0  0  0  0  0
   11.6526   17.5746   22.5823 N   0  0  0  0  0  0  0  0  0  0  0  0
   12.3022   14.2839   21.5100 C   0  0  0  0  0  0  0  0  0  0  0  0
   13.1658   14.6089   22.6961 C   0  0  0  0  0  0  0  0  0  0  0  0
    8.3574   12.0619   23.4757 C   0  0  0  0  0  0  0  0  0  0  0  0
    7.1865   11.7391   23.9768 N   0  0  0  0  0  0  0  0  0  0  0  0
  1  2  1  0
  2  3  1  0
  2  4  1  0
  4  5  2  0
  4  6  1  0
  6  7  2  0
  7  8  1  0
  8  9  2  0
  9 10  1  0
 10 11  1  0
 11 12  2  0
 11 13  1  0
 13 14  1  0
 14 15  3  0
 13 16  1  0
 16 17  1  0
  9 18  1  0
 18 19  2  0
 19  6  1  0
 17 13  1  0
M  END
>  <distance_score>  (99) 
2.057057

>  <ref_pdb>  (99) 
A0310a

>  <ref_mols>  (99) 
A0556a,A0310a

>  <alias>  (99) 
None

>  <original SMILES>  (99) 
CN(C)C(=O)c1ccc(NC(=O)C2(C#N)CC2)cn1

>  <inchikey>  (99) 
DTAPSOTUKJTRJU-UHFFFAOYSA-N

>  <exports>  (99) 
['/opt/xchem-fragalysis-2/maxwin/2A_HIPPO/hippo/A71EV2A_10_recipes/Recipe_1LPVPY0_poses.sdf']

>  <original ID>  (99) 
DTAPSOTUKJTRJU-UHFFFAOYSA-N

>  <energy_score>  (99) 
22.174535

>  <tags>  (99) 
[]

>  <HIPPO ID>  (99) 
81311

>  <name>  (99) 
DTAPSOTUKJTRJU-UHFFFAOYSA-N

$$$$
OVBQVJRGCDLJGA-UHFFFAOYSA-N
     RDKit          3D

 19 19  0  0  0  0  0  0  0  0999 V2000
   10.3502   10.9342   23.2793 C   0  0  0  0  0  0  0  0  0  0  0  0
   11.1848   12.2070   23.1795 C   0  0  0  0  0  0  0  0  0  0  0  0
   10.6781   13.6303   23.0660 C   0  0  0  0  0  0  0  0  0  0  0  0
   10.9528   14.3911   24.2925 C   0  0  0  0  0  0  0  0  0  0  0  0
   11.1666   15.0241   25.2419 N   0  0  0  0  0  0  0  0  0  0  0  0
   11.5422   14.2715   21.9318 C   0  0  0  0  0  0  0  0  0  0  0  0
   11.4304   15.7519   21.7198 C   0  0  0  0  0  0  0  0  0  0  0  0
    9.2241   13.7506   22.7324 C   0  0  0  0  0  0  0  0  0  0  0  0
    8.7698   14.7653   22.2179 O   0  0  0  0  0  0  0  0  0  0  0  0
    8.2801   12.7995   22.9449 N   0  0  0  0  0  0  0  0  0  0  0  0
    7.8776   12.3453   24.2142 C   0  0  0  0  0  0  0  0  0  0  0  0
    7.3674   13.2303   25.1427 C   0  0  0  0  0  0  0  0  0  0  0  0
    6.6452   12.7091   26.2026 C   0  0  0  0  0  0  0  0  0  0  0  0
    6.4923   11.3237   26.2883 C   0  0  0  0  0  0  0  0  0  0  0  0
    5.5454   10.7539   27.2634 C   0  0  0  0  0  0  0  0  0  0  0  0
    5.3913    9.3994   27.2523 N   0  0  0  0  0  0  0  0  0  0  0  0
    4.9185   11.4734   28.0272 O   0  0  0  0  0  0  0  0  0  0  0  0
    7.0676   10.4273   25.4662 N   0  0  0  0  0  0  0  0  0  0  0  0
    7.6942   10.9725   24.4251 C   0  0  0  0  0  0  0  0  0  0  0  0
  1  2  1  0
  2  3  1  0
  3  4  1  0
  4  5  3  0
  3  6  1  0
  6  7  1  0
  3  8  1  0
  8  9  2  0
  8 10  1  0
 10 11  1  0
 11 12  2  0
 12 13  1  0
 13 14  2  0
 14 15  1  0
 15 16  1  0
 15 17  2  0
 14 18  1  0
 18 19  2  0
 19 11  1  0
M  END
>  <distance_score>  (100) 
2.019838

>  <ref_pdb>  (100) 
A0310a

>  <ref_mols>  (100) 
A0556a,A0310a

>  <alias>  (100) 
None

>  <original SMILES>  (100) 
CCC(C#N)(CC)C(=O)Nc1ccc(C(N)=O)nc1

>  <inchikey>  (100) 
OVBQVJRGCDLJGA-UHFFFAOYSA-N

>  <exports>  (100) 
['/opt/xchem-fragalysis-2/maxwin/2A_HIPPO/hippo/A71EV2A_10_recipes/Recipe_1LPVPY0_poses.sdf']

>  <original ID>  (100) 
OVBQVJRGCDLJGA-UHFFFAOYSA-N

>  <energy_score>  (100) 
-7.095039

>  <tags>  (100) 
[]

>  <HIPPO ID>  (100) 
81714

>  <name>  (100) 
OVBQVJRGCDLJGA-UHFFFAOYSA-N

$$$$
IUZZXWUEQXPWRK-CHHVJCJISA-N
     RDKit          3D

 19 19  0  0  0  0  0  0  0  0999 V2000
    9.3173    8.9352   23.4521 C   0  0  0  0  0  0  0  0  0  0  0  0
    9.4436   10.3199   23.7318 O   0  0  0  0  0  0  0  0  0  0  0  0
    8.5204   10.8576   24.6061 C   0  0  0  0  0  0  0  0  0  0  0  0
    7.5424   10.0884   25.1444 N   0  0  0  0  0  0  0  0  0  0  0  0
    6.6564   10.7501   25.9501 C   0  0  0  0  0  0  0  0  0  0  0  0
    5.7707    9.9945   26.8491 C   0  0  0  0  0  0  0  0  0  0  0  0
    5.0283    8.9964   26.3246 N   0  0  0  0  0  0  0  0  0  0  0  0
    5.7017   10.2639   28.0411 O   0  0  0  0  0  0  0  0  0  0  0  0
    6.6029   12.1114   26.1692 C   0  0  0  0  0  0  0  0  0  0  0  0
    7.6096   12.8547   25.6372 C   0  0  0  0  0  0  0  0  0  0  0  0
    8.6259   12.2227   24.9137 C   0  0  0  0  0  0  0  0  0  0  0  0
    9.6525   13.1264   24.5943 N   0  0  0  0  0  0  0  0  0  0  0  0
   10.5838   12.9296   23.6255 C   0  0  0  0  0  0  0  0  0  0  0  0
   11.6211   12.3189   23.7661 O   0  0  0  0  0  0  0  0  0  0  0  0
   10.3276   13.8851   22.5049 C   0  0  0  0  0  0  0  0  0  0  0  0
   11.3176   14.8802   22.1777 C   0  0  0  0  0  0  0  0  0  0  0  0
   12.0606   15.7715   22.1043 N   0  0  0  0  0  0  0  0  0  0  0  0
    9.1311   14.1299   22.0290 N   0  0  0  0  0  0  0  0  0  0  0  0
    8.0635   13.3534   22.5684 O   0  0  0  0  0  0  0  0  0  0  0  0
  1  2  1  0
  2  3  1  0
  3  4  2  0
  4  5  1  0
  5  6  1  0
  6  7  1  0
  6  8  2  0
  5  9  2  0
  9 10  1  0
 10 11  2  0
 11 12  1  0
 12 13  1  0
 13 14  2  0
 13 15  1  0
 15 16  1  0
 16 17  3  0
 15 18  2  0
 18 19  1  0
 11  3  1  0
M  END
>  <distance_score>  (101) 
2.306733

>  <ref_pdb>  (101) 
A0310a

>  <ref_mols>  (101) 
A0556a,A0310a

>  <alias>  (101) 
None

>  <original SMILES>  (101) 
COc1nc(C(N)=O)ccc1NC(=O)/C(C#N)=N\O

>  <inchikey>  (101) 
IUZZXWUEQXPWRK-CHHVJCJISA-N

>  <exports>  (101) 
['/opt/xchem-fragalysis-2/maxwin/2A_HIPPO/hippo/A71EV2A_10_recipes/Recipe_1LPVPY0_poses.sdf']

>  <original ID>  (101) 
IUZZXWUEQXPWRK-CHHVJCJISA-N

>  <energy_score>  (101) 
-59.799942

>  <tags>  (101) 
[]

>  <HIPPO ID>  (101) 
83133

>  <name>  (101) 
IUZZXWUEQXPWRK-CHHVJCJISA-N

$$$$
IUZZXWUEQXPWRK-CHHVJCJISA-N
     RDKit          3D

 19 19  0  0  0  0  0  0  0  0999 V2000
   10.3480    8.9980   22.9759 C   0  0  0  0  0  0  0  0  0  0  0  0
    9.1602    9.0588   23.7118 O   0  0  0  0  0  0  0  0  0  0  0  0
    8.6243   10.2280   24.1060 C   0  0  0  0  0  0  0  0  0  0  0  0
    7.7213    9.9805   25.0764 N   0  0  0  0  0  0  0  0  0  0  0  0
    6.9007   10.9754   25.4561 C   0  0  0  0  0  0  0  0  0  0  0  0
    6.0144   10.6868   26.5972 C   0  0  0  0  0  0  0  0  0  0  0  0
    6.3968   11.2111   27.7993 N   0  0  0  0  0  0  0  0  0  0  0  0
    4.9719   10.0649   26.4969 O   0  0  0  0  0  0  0  0  0  0  0  0
    6.8626   12.2173   24.8642 C   0  0  0  0  0  0  0  0  0  0  0  0
    7.8192   12.4730   23.8960 C   0  0  0  0  0  0  0  0  0  0  0  0
    8.8106   11.5251   23.6114 C   0  0  0  0  0  0  0  0  0  0  0  0
    9.9381   11.9994   22.8888 N   0  0  0  0  0  0  0  0  0  0  0  0
   10.8623   12.7299   23.6222 C   0  0  0  0  0  0  0  0  0  0  0  0
   11.9473   12.3040   23.9935 O   0  0  0  0  0  0  0  0  0  0  0  0
   10.6312   14.1511   23.9311 C   0  0  0  0  0  0  0  0  0  0  0  0
   11.3711   15.1591   23.2073 C   0  0  0  0  0  0  0  0  0  0  0  0
   11.9302   16.0071   22.6442 N   0  0  0  0  0  0  0  0  0  0  0  0
    9.8906   14.6457   24.8880 N   0  0  0  0  0  0  0  0  0  0  0  0
    9.1636   13.7302   25.6469 O   0  0  0  0  0  0  0  0  0  0  0  0
  1  2  1  0
  2  3  1  0
  3  4  2  0
  4  5  1  0
  5  6  1  0
  6  7  1  0
  6  8  2  0
  5  9  2  0
  9 10  1  0
 10 11  2  0
 11 12  1  0
 12 13  1  0
 13 14  2  0
 13 15  1  0
 15 16  1  0
 16 17  3  0
 15 18  2  0
 18 19  1  0
 11  3  1  0
M  END
>  <distance_score>  (102) 
1.886876

>  <ref_pdb>  (102) 
A0310a

>  <ref_mols>  (102) 
A0556a,A0310a

>  <alias>  (102) 
None

>  <original SMILES>  (102) 
COc1nc(C(N)=O)ccc1NC(=O)/C(C#N)=N\O

>  <inchikey>  (102) 
IUZZXWUEQXPWRK-CHHVJCJISA-N

>  <exports>  (102) 
['/opt/xchem-fragalysis-2/maxwin/2A_HIPPO/hippo/A71EV2A_10_recipes/Recipe_1LPVPY0_poses.sdf']

>  <original ID>  (102) 
IUZZXWUEQXPWRK-CHHVJCJISA-N

>  <energy_score>  (102) 
10.205736

>  <tags>  (102) 
[]

>  <HIPPO ID>  (102) 
83134

>  <name>  (102) 
IUZZXWUEQXPWRK-CHHVJCJISA-N

$$$$
UHJSZFRUCMQUPE-OQLLNIDSSA-N
     RDKit          3D

 19 19  0  0  0  0  0  0  0  0999 V2000
    6.1111    9.9592   28.4516 C   0  0  0  0  0  0  0  0  0  0  0  0
    6.4253   10.1012   27.0596 N   0  0  0  0  0  0  0  0  0  0  0  0
    5.3822    9.6325   26.2284 C   0  0  0  0  0  0  0  0  0  0  0  0
    6.7878   11.3749   26.6561 C   0  0  0  0  0  0  0  0  0  0  0  0
    6.5338   12.3606   27.3406 O   0  0  0  0  0  0  0  0  0  0  0  0
    7.5247   11.4704   25.3566 C   0  0  0  0  0  0  0  0  0  0  0  0
    8.1937   10.3868   24.7544 C   0  0  0  0  0  0  0  0  0  0  0  0
    9.1122   10.6383   23.7447 C   0  0  0  0  0  0  0  0  0  0  0  0
    9.3602   11.9662   23.4657 C   0  0  0  0  0  0  0  0  0  0  0  0
   10.4933   12.3665   22.7745 N   0  0  0  0  0  0  0  0  0  0  0  0
   11.2137   13.4187   23.2957 C   0  0  0  0  0  0  0  0  0  0  0  0
   11.2728   13.7249   24.4809 O   0  0  0  0  0  0  0  0  0  0  0  0
   11.8313   14.3114   22.2874 C   0  0  0  0  0  0  0  0  0  0  0  0
   11.8352   15.7239   22.5246 C   0  0  0  0  0  0  0  0  0  0  0  0
   11.7743   16.8620   22.7414 N   0  0  0  0  0  0  0  0  0  0  0  0
   12.2913   13.8388   21.1724 N   0  0  0  0  0  0  0  0  0  0  0  0
   12.6592   14.8553   20.2900 O   0  0  0  0  0  0  0  0  0  0  0  0
    8.5483   12.9602   24.0141 C   0  0  0  0  0  0  0  0  0  0  0  0
    7.6191   12.7381   24.9298 N   0  0  0  0  0  0  0  0  0  0  0  0
  1  2  1  0
  2  3  1  0
  2  4  1  0
  4  5  2  0
  4  6  1  0
  6  7  2  0
  7  8  1  0
  8  9  2  0
  9 10  1  0
 10 11  1  0
 11 12  2  0
 11 13  1  0
 13 14  1  0
 14 15  3  0
 13 16  2  0
 16 17  1  0
  9 18  1  0
 18 19  2  0
 19  6  1  0
M  END
>  <distance_score>  (103) 
1.859088

>  <ref_pdb>  (103) 
A0310a

>  <ref_mols>  (103) 
A0556a,A0310a

>  <alias>  (103) 
None

>  <original SMILES>  (103) 
CN(C)C(=O)c1ccc(NC(=O)/C(C#N)=N/O)cn1

>  <inchikey>  (103) 
UHJSZFRUCMQUPE-OQLLNIDSSA-N

>  <exports>  (103) 
['/opt/xchem-fragalysis-2/maxwin/2A_HIPPO/hippo/A71EV2A_10_recipes/Recipe_1LPVPY0_poses.sdf']

>  <original ID>  (103) 
UHJSZFRUCMQUPE-OQLLNIDSSA-N

>  <energy_score>  (103) 
-7.633147

>  <tags>  (103) 
[]

>  <HIPPO ID>  (103) 
83179

>  <name>  (103) 
UHJSZFRUCMQUPE-OQLLNIDSSA-N

$$$$
UHJSZFRUCMQUPE-DHDCSXOGSA-N
     RDKit          3D

 19 19  0  0  0  0  0  0  0  0999 V2000
    6.5618   12.3152   27.3107 C   0  0  0  0  0  0  0  0  0  0  0  0
    6.5158   10.8778   27.1234 N   0  0  0  0  0  0  0  0  0  0  0  0
    5.6496   10.1375   27.9968 C   0  0  0  0  0  0  0  0  0  0  0  0
    6.5722   10.3548   25.8435 C   0  0  0  0  0  0  0  0  0  0  0  0
    5.8231    9.4656   25.4758 O   0  0  0  0  0  0  0  0  0  0  0  0
    7.6033   10.8627   24.9260 C   0  0  0  0  0  0  0  0  0  0  0  0
    8.4410    9.9893   24.2292 C   0  0  0  0  0  0  0  0  0  0  0  0
    9.4472   10.5421   23.4541 C   0  0  0  0  0  0  0  0  0  0  0  0
    9.6005   11.9203   23.4927 C   0  0  0  0  0  0  0  0  0  0  0  0
   10.6741   12.5473   22.8815 N   0  0  0  0  0  0  0  0  0  0  0  0
   11.1981   13.7145   23.4009 C   0  0  0  0  0  0  0  0  0  0  0  0
   11.0952   14.0650   24.5732 O   0  0  0  0  0  0  0  0  0  0  0  0
   11.8091   14.6642   22.4221 C   0  0  0  0  0  0  0  0  0  0  0  0
   11.7985   16.0618   22.6663 C   0  0  0  0  0  0  0  0  0  0  0  0
   11.7073   17.2041   22.8388 N   0  0  0  0  0  0  0  0  0  0  0  0
   12.2798   14.4116   21.2479 N   0  0  0  0  0  0  0  0  0  0  0  0
   12.3717   13.0626   21.0507 O   0  0  0  0  0  0  0  0  0  0  0  0
    8.6633   12.7026   24.1562 C   0  0  0  0  0  0  0  0  0  0  0  0
    7.6548   12.2046   24.8495 N   0  0  0  0  0  0  0  0  0  0  0  0
  1  2  1  0
  2  3  1  0
  2  4  1  0
  4  5  2  0
  4  6  1  0
  6  7  2  0
  7  8  1  0
  8  9  2  0
  9 10  1  0
 10 11  1  0
 11 12  2  0
 11 13  1  0
 13 14  1  0
 14 15  3  0
 13 16  2  0
 16 17  1  0
  9 18  1  0
 18 19  2  0
 19  6  1  0
M  END
>  <distance_score>  (104) 
1.78883

>  <ref_pdb>  (104) 
A0310a

>  <ref_mols>  (104) 
A0556a,A0310a

>  <alias>  (104) 
None

>  <original SMILES>  (104) 
CN(C)C(=O)c1ccc(NC(=O)/C(C#N)=N\O)cn1

>  <inchikey>  (104) 
UHJSZFRUCMQUPE-DHDCSXOGSA-N

>  <exports>  (104) 
['/opt/xchem-fragalysis-2/maxwin/2A_HIPPO/hippo/A71EV2A_10_recipes/Recipe_1LPVPY0_poses.sdf']

>  <original ID>  (104) 
UHJSZFRUCMQUPE-DHDCSXOGSA-N

>  <energy_score>  (104) 
-15.337844

>  <tags>  (104) 
[]

>  <HIPPO ID>  (104) 
83180

>  <name>  (104) 
UHJSZFRUCMQUPE-DHDCSXOGSA-N

$$$$
AJVIKZPIPBHAKY-UHFFFAOYSA-N
     RDKit          3D

 17 17  0  0  0  0  0  0  0  0999 V2000
    7.1804   14.5016   25.9667 C   0  0  0  0  0  0  0  0  0  0  0  0
    6.4327   13.2510   25.5297 C   0  0  0  0  0  0  0  0  0  0  0  0
    6.8695   12.1584   26.3555 O   0  0  0  0  0  0  0  0  0  0  0  0
    6.8526   10.9185   25.7793 C   0  0  0  0  0  0  0  0  0  0  0  0
    6.0116   10.0862   26.0834 O   0  0  0  0  0  0  0  0  0  0  0  0
    7.9813   10.7053   24.8863 C   0  0  0  0  0  0  0  0  0  0  0  0
    8.8941   11.7050   24.5472 C   0  0  0  0  0  0  0  0  0  0  0  0
    9.6717   11.2278   23.5428 C   0  0  0  0  0  0  0  0  0  0  0  0
   10.5750   11.9467   22.7942 N   0  0  0  0  0  0  0  0  0  0  0  0
   10.9813   13.2183   23.1979 C   0  0  0  0  0  0  0  0  0  0  0  0
   10.8498   13.6617   24.3393 O   0  0  0  0  0  0  0  0  0  0  0  0
   11.6195   14.0159   22.0913 C   0  0  0  0  0  0  0  0  0  0  0  0
   11.7672   15.4110   22.4859 C   0  0  0  0  0  0  0  0  0  0  0  0
   11.8143   16.5330   22.7744 N   0  0  0  0  0  0  0  0  0  0  0  0
    9.3294    9.9033   23.4536 N   0  0  0  0  0  0  0  0  0  0  0  0
    9.9396    8.8774   22.6606 C   0  0  0  0  0  0  0  0  0  0  0  0
    8.2923    9.5653   24.2584 N   0  0  0  0  0  0  0  0  0  0  0  0
  1  2  1  0
  2  3  1  0
  3  4  1  0
  4  5  2  0
  4  6  1  0
  6  7  1  0
  7  8  2  0
  8  9  1  0
  9 10  1  0
 10 11  2  0
 10 12  1  0
 12 13  1  0
 13 14  3  0
  8 15  1  0
 15 16  1  0
 15 17  1  0
 17  6  2  0
M  END
>  <distance_score>  (105) 
1.567163

>  <ref_pdb>  (105) 
A0310a

>  <ref_mols>  (105) 
A0556a,A0310a

>  <alias>  (105) 
None

>  <original SMILES>  (105) 
CCOC(=O)c1cc(NC(=O)CC#N)n(C)n1

>  <inchikey>  (105) 
AJVIKZPIPBHAKY-UHFFFAOYSA-N

>  <exports>  (105) 
['/opt/xchem-fragalysis-2/maxwin/2A_HIPPO/hippo/A71EV2A_10_recipes/Recipe_1LPUPHX_poses.sdf', '/opt/xchem-fragalysis-2/maxwin/2A_HIPPO/hippo/A71EV2A_10_recipes/Recipe_1LPVPY0_poses.sdf']

>  <original ID>  (105) 
AJVIKZPIPBHAKY-UHFFFAOYSA-N

>  <energy_score>  (105) 
-2.139554

>  <tags>  (105) 
['Syndirella scaffold']

>  <HIPPO ID>  (105) 
85157

>  <name>  (105) 
AJVIKZPIPBHAKY-UHFFFAOYSA-N

$$$$
LTICVQBHKOSUNK-SSDOTTSWSA-N
     RDKit          3D

 18 18  0  0  0  0  0  0  0  0999 V2000
    5.6091   13.4519   25.4116 C   0  0  0  0  0  0  0  0  0  0  0  0
    6.6061   13.2814   26.5320 C   0  0  0  0  0  0  0  0  0  0  0  0
    7.0542   11.9405   26.8085 O   0  0  0  0  0  0  0  0  0  0  0  0
    6.7965   10.9136   25.9516 C   0  0  0  0  0  0  0  0  0  0  0  0
    5.8454   10.1623   26.1075 O   0  0  0  0  0  0  0  0  0  0  0  0
    7.8440   10.7794   24.9601 C   0  0  0  0  0  0  0  0  0  0  0  0
    8.5874   11.8571   24.4857 C   0  0  0  0  0  0  0  0  0  0  0  0
    9.4687   11.3761   23.5686 C   0  0  0  0  0  0  0  0  0  0  0  0
   10.3538   12.1338   22.8328 N   0  0  0  0  0  0  0  0  0  0  0  0
   10.6322   13.4402   23.2503 C   0  0  0  0  0  0  0  0  0  0  0  0
   10.4825   13.8429   24.4068 O   0  0  0  0  0  0  0  0  0  0  0  0
   11.1002   14.3617   22.1520 C   0  0  2  0  0  0  0  0  0  0  0  0
   12.4011   13.8831   21.6166 C   0  0  0  0  0  0  0  0  0  0  0  0
   11.3953   15.6968   22.6620 C   0  0  0  0  0  0  0  0  0  0  0  0
   11.6879   16.7701   22.9856 N   0  0  0  0  0  0  0  0  0  0  0  0
    9.2280   10.0247   23.5316 N   0  0  0  0  0  0  0  0  0  0  0  0
    9.8913    9.0135   22.7548 C   0  0  0  0  0  0  0  0  0  0  0  0
    8.2481    9.6390   24.3881 N   0  0  0  0  0  0  0  0  0  0  0  0
  1  2  1  0
  2  3  1  0
  3  4  1  0
  4  5  2  0
  4  6  1  0
  6  7  1  0
  7  8  2  0
  8  9  1  0
  9 10  1  0
 10 11  2  0
 10 12  1  0
 12 13  1  1
 12 14  1  0
 14 15  3  0
  8 16  1  0
 16 17  1  0
 16 18  1  0
 18  6  2  0
M  END
>  <distance_score>  (106) 
1.321939

>  <ref_pdb>  (106) 
A0310a

>  <ref_mols>  (106) 
A0556a,A0310a

>  <alias>  (106) 
None

>  <original SMILES>  (106) 
CCOC(=O)c1cc(NC(=O)[C@H](C)C#N)n(C)n1

>  <inchikey>  (106) 
LTICVQBHKOSUNK-SSDOTTSWSA-N

>  <exports>  (106) 
['/opt/xchem-fragalysis-2/maxwin/2A_HIPPO/hippo/A71EV2A_10_recipes/Recipe_1LPVPY0_poses.sdf']

>  <original ID>  (106) 
LTICVQBHKOSUNK-SSDOTTSWSA-N

>  <energy_score>  (106) 
6.531693

>  <tags>  (106) 
[]

>  <HIPPO ID>  (106) 
85162

>  <name>  (106) 
LTICVQBHKOSUNK-SSDOTTSWSA-N

$$$$
LTICVQBHKOSUNK-ZETCQYMHSA-N
     RDKit          3D

 18 18  0  0  0  0  0  0  0  0999 V2000
    6.3520   14.4887   25.8564 C   0  0  0  0  0  0  0  0  0  0  0  0
    6.0344   13.0785   25.4305 C   0  0  0  0  0  0  0  0  0  0  0  0
    6.7498   12.1880   26.2905 O   0  0  0  0  0  0  0  0  0  0  0  0
    6.8073   10.9164   25.8019 C   0  0  0  0  0  0  0  0  0  0  0  0
    5.9914   10.0655   26.1228 O   0  0  0  0  0  0  0  0  0  0  0  0
    7.9475   10.7424   24.9213 C   0  0  0  0  0  0  0  0  0  0  0  0
    8.7967   11.7884   24.5406 C   0  0  0  0  0  0  0  0  0  0  0  0
    9.6059   11.3089   23.5559 C   0  0  0  0  0  0  0  0  0  0  0  0
   10.4919   12.0348   22.7863 N   0  0  0  0  0  0  0  0  0  0  0  0
   10.8442   13.3317   23.1562 C   0  0  0  0  0  0  0  0  0  0  0  0
   10.7130   13.7678   24.3030 O   0  0  0  0  0  0  0  0  0  0  0  0
   11.4384   14.1747   22.0361 C   0  0  1  0  0  0  0  0  0  0  0  0
   10.4503   14.4096   20.8942 C   0  0  0  0  0  0  0  0  0  0  0  0
   11.7874   15.4904   22.5652 C   0  0  0  0  0  0  0  0  0  0  0  0
   11.9014   16.5812   22.9368 N   0  0  0  0  0  0  0  0  0  0  0  0
    9.3067    9.9694   23.4882 N   0  0  0  0  0  0  0  0  0  0  0  0
    9.9288    8.9505   22.6906 C   0  0  0  0  0  0  0  0  0  0  0  0
    8.3057    9.6021   24.3239 N   0  0  0  0  0  0  0  0  0  0  0  0
  1  2  1  0
  2  3  1  0
  3  4  1  0
  4  5  2  0
  4  6  1  0
  6  7  1  0
  7  8  2  0
  8  9  1  0
  9 10  1  0
 10 11  2  0
 10 12  1  0
 12 13  1  6
 12 14  1  0
 14 15  3  0
  8 16  1  0
 16 17  1  0
 16 18  1  0
 18  6  2  0
M  END
>  <distance_score>  (107) 
1.537088

>  <ref_pdb>  (107) 
A0310a

>  <ref_mols>  (107) 
A0556a,A0310a

>  <alias>  (107) 
None

>  <original SMILES>  (107) 
CCOC(=O)c1cc(NC(=O)[C@@H](C)C#N)n(C)n1

>  <inchikey>  (107) 
LTICVQBHKOSUNK-ZETCQYMHSA-N

>  <exports>  (107) 
['/opt/xchem-fragalysis-2/maxwin/2A_HIPPO/hippo/A71EV2A_10_recipes/Recipe_1LPVPY0_poses.sdf']

>  <original ID>  (107) 
LTICVQBHKOSUNK-ZETCQYMHSA-N

>  <energy_score>  (107) 
4.522449

>  <tags>  (107) 
[]

>  <HIPPO ID>  (107) 
85163

>  <name>  (107) 
LTICVQBHKOSUNK-ZETCQYMHSA-N

$$$$
JFJOZCRXMBFTTP-UHFFFAOYSA-N
     RDKit          3D

 18 18  0  0  0  0  0  0  0  0999 V2000
    4.3911   11.3941   27.4993 C   0  0  0  0  0  0  0  0  0  0  0  0
    5.2159   10.1238   27.3395 C   0  0  0  0  0  0  0  0  0  0  0  0
    6.0245   10.1210   26.1665 O   0  0  0  0  0  0  0  0  0  0  0  0
    6.9369   11.1147   26.1125 C   0  0  0  0  0  0  0  0  0  0  0  0
    7.0238   12.0262   26.9275 O   0  0  0  0  0  0  0  0  0  0  0  0
    7.8389   10.9840   24.9934 C   0  0  0  0  0  0  0  0  0  0  0  0
    8.2893    9.8112   24.5108 N   0  0  0  0  0  0  0  0  0  0  0  0
    9.1920   10.1716   23.5695 N   0  0  0  0  0  0  0  0  0  0  0  0
    9.8716    9.1311   22.8374 C   0  0  0  0  0  0  0  0  0  0  0  0
    9.3746   11.5325   23.4997 C   0  0  0  0  0  0  0  0  0  0  0  0
   10.3294   12.1806   22.7483 N   0  0  0  0  0  0  0  0  0  0  0  0
   10.9725   13.2854   23.2921 C   0  0  0  0  0  0  0  0  0  0  0  0
   10.9349   13.5859   24.4851 O   0  0  0  0  0  0  0  0  0  0  0  0
   11.8033   14.0376   22.2921 C   0  0  0  0  0  0  0  0  0  0  0  0
   11.8092   15.4585   22.5980 C   0  0  0  0  0  0  0  0  0  0  0  0
   11.7805   16.5980   22.8067 N   0  0  0  0  0  0  0  0  0  0  0  0
    8.4034   12.0595   24.3100 C   0  0  0  0  0  0  0  0  0  0  0  0
    7.8060   13.8266   24.4802 Br  0  0  0  0  0  0  0  0  0  0  0  0
  1  2  1  0
  2  3  1  0
  3  4  1  0
  4  5  2  0
  4  6  1  0
  6  7  2  0
  7  8  1  0
  8  9  1  0
  8 10  1  0
 10 11  1  0
 11 12  1  0
 12 13  2  0
 12 14  1  0
 14 15  1  0
 15 16  3  0
 10 17  2  0
 17 18  1  0
 17  6  1  0
M  END
>  <distance_score>  (108) 
0.865841

>  <ref_pdb>  (108) 
A0310a

>  <ref_mols>  (108) 
A0556a,A0310a

>  <alias>  (108) 
None

>  <original SMILES>  (108) 
CCOC(=O)c1nn(C)c(NC(=O)CC#N)c1Br

>  <inchikey>  (108) 
JFJOZCRXMBFTTP-UHFFFAOYSA-N

>  <exports>  (108) 
['/opt/xchem-fragalysis-2/maxwin/2A_HIPPO/hippo/A71EV2A_10_recipes/Recipe_1LPVPY0_poses.sdf']

>  <original ID>  (108) 
JFJOZCRXMBFTTP-UHFFFAOYSA-N

>  <energy_score>  (108) 
-14.422549

>  <tags>  (108) 
[]

>  <HIPPO ID>  (108) 
85171

>  <name>  (108) 
JFJOZCRXMBFTTP-UHFFFAOYSA-N

$$$$
RSDPJOPDHPZJGB-VGOFMYFVSA-N
     RDKit          3D

 19 19  0  0  0  0  0  0  0  0999 V2000
    7.1705   14.5199   25.8388 C   0  0  0  0  0  0  0  0  0  0  0  0
    6.4364   13.2508   25.4326 C   0  0  0  0  0  0  0  0  0  0  0  0
    6.8686   12.1823   26.2920 O   0  0  0  0  0  0  0  0  0  0  0  0
    6.8746   10.9289   25.7429 C   0  0  0  0  0  0  0  0  0  0  0  0
    6.0479   10.0891   26.0644 O   0  0  0  0  0  0  0  0  0  0  0  0
    8.0097   10.7176   24.8572 C   0  0  0  0  0  0  0  0  0  0  0  0
    8.9390   11.7114   24.5505 C   0  0  0  0  0  0  0  0  0  0  0  0
    9.7185   11.2543   23.5360 C   0  0  0  0  0  0  0  0  0  0  0  0
   10.6393   11.9969   22.8271 N   0  0  0  0  0  0  0  0  0  0  0  0
   11.0744   13.2161   23.3335 C   0  0  0  0  0  0  0  0  0  0  0  0
   10.9781   13.6074   24.4942 O   0  0  0  0  0  0  0  0  0  0  0  0
   11.6955   14.1616   22.3575 C   0  0  0  0  0  0  0  0  0  0  0  0
   11.7276   15.5691   22.6519 C   0  0  0  0  0  0  0  0  0  0  0  0
   11.7334   16.7046   22.8943 N   0  0  0  0  0  0  0  0  0  0  0  0
   12.2184   13.7569   21.2407 N   0  0  0  0  0  0  0  0  0  0  0  0
   12.5829   14.8351   20.4210 O   0  0  0  0  0  0  0  0  0  0  0  0
    9.3562    9.9367   23.4086 N   0  0  0  0  0  0  0  0  0  0  0  0
    9.9739    8.9109   22.6215 C   0  0  0  0  0  0  0  0  0  0  0  0
    8.3161    9.5898   24.2087 N   0  0  0  0  0  0  0  0  0  0  0  0
  1  2  1  0
  2  3  1  0
  3  4  1  0
  4  5  2  0
  4  6  1  0
  6  7  1  0
  7  8  2  0
  8  9  1  0
  9 10  1  0
 10 11  2  0
 10 12  1  0
 12 13  1  0
 13 14  3  0
 12 15  2  0
 15 16  1  0
  8 17  1  0
 17 18  1  0
 17 19  1  0
 19  6  2  0
M  END
>  <distance_score>  (109) 
1.587543

>  <ref_pdb>  (109) 
A0310a

>  <ref_mols>  (109) 
A0556a,A0310a

>  <alias>  (109) 
None

>  <original SMILES>  (109) 
CCOC(=O)c1cc(NC(=O)/C(C#N)=N/O)n(C)n1

>  <inchikey>  (109) 
RSDPJOPDHPZJGB-VGOFMYFVSA-N

>  <exports>  (109) 
['/opt/xchem-fragalysis-2/maxwin/2A_HIPPO/hippo/A71EV2A_10_recipes/Recipe_1LPVPY0_poses.sdf']

>  <original ID>  (109) 
RSDPJOPDHPZJGB-VGOFMYFVSA-N

>  <energy_score>  (109) 
-79.067178

>  <tags>  (109) 
[]

>  <HIPPO ID>  (109) 
85375

>  <name>  (109) 
RSDPJOPDHPZJGB-VGOFMYFVSA-N

$$$$
RSDPJOPDHPZJGB-AUWJEWJLSA-N
     RDKit          3D

 19 19  0  0  0  0  0  0  0  0999 V2000
    6.1436   13.6848   27.5064 C   0  0  0  0  0  0  0  0  0  0  0  0
    6.8293   13.3823   26.2008 C   0  0  0  0  0  0  0  0  0  0  0  0
    6.1401   12.2954   25.5773 O   0  0  0  0  0  0  0  0  0  0  0  0
    6.7202   11.0662   25.6522 C   0  0  0  0  0  0  0  0  0  0  0  0
    6.2464   10.1759   26.3429 O   0  0  0  0  0  0  0  0  0  0  0  0
    7.8583   10.9315   24.7604 C   0  0  0  0  0  0  0  0  0  0  0  0
    8.4862   11.9955   24.1023 C   0  0  0  0  0  0  0  0  0  0  0  0
    9.5907   11.4829   23.4942 C   0  0  0  0  0  0  0  0  0  0  0  0
   10.6023   12.2244   22.9264 N   0  0  0  0  0  0  0  0  0  0  0  0
   10.8754   13.5001   23.4320 C   0  0  0  0  0  0  0  0  0  0  0  0
   10.5093   13.9166   24.5316 O   0  0  0  0  0  0  0  0  0  0  0  0
   11.6299   14.4702   22.5644 C   0  0  0  0  0  0  0  0  0  0  0  0
   11.6826   15.8653   22.8414 C   0  0  0  0  0  0  0  0  0  0  0  0
   11.6839   17.0146   22.9945 N   0  0  0  0  0  0  0  0  0  0  0  0
   12.2531   14.2589   21.4567 N   0  0  0  0  0  0  0  0  0  0  0  0
   12.3558   12.9293   21.2065 O   0  0  0  0  0  0  0  0  0  0  0  0
    9.4016   10.1241   23.5472 N   0  0  0  0  0  0  0  0  0  0  0  0
   10.0767    9.0787   22.8320 C   0  0  0  0  0  0  0  0  0  0  0  0
    8.4360    9.7699   24.4286 N   0  0  0  0  0  0  0  0  0  0  0  0
  1  2  1  0
  2  3  1  0
  3  4  1  0
  4  5  2  0
  4  6  1  0
  6  7  1  0
  7  8  2  0
  8  9  1  0
  9 10  1  0
 10 11  2  0
 10 12  1  0
 12 13  1  0
 13 14  3  0
 12 15  2  0
 15 16  1  0
  8 17  1  0
 17 18  1  0
 17 19  1  0
 19  6  2  0
M  END
>  <distance_score>  (110) 
1.310701

>  <ref_pdb>  (110) 
A0310a

>  <ref_mols>  (110) 
A0556a,A0310a

>  <alias>  (110) 
None

>  <original SMILES>  (110) 
CCOC(=O)c1cc(NC(=O)/C(C#N)=N\O)n(C)n1

>  <inchikey>  (110) 
RSDPJOPDHPZJGB-AUWJEWJLSA-N

>  <exports>  (110) 
['/opt/xchem-fragalysis-2/maxwin/2A_HIPPO/hippo/A71EV2A_10_recipes/Recipe_1LPVPY0_poses.sdf']

>  <original ID>  (110) 
RSDPJOPDHPZJGB-AUWJEWJLSA-N

>  <energy_score>  (110) 
-21.521051

>  <tags>  (110) 
[]

>  <HIPPO ID>  (110) 
85376

>  <name>  (110) 
RSDPJOPDHPZJGB-AUWJEWJLSA-N

$$$$
ACIOWROMOYENEC-ZCFIWIBFSA-N
     RDKit          3D

 19 19  0  0  0  0  0  0  0  0999 V2000
    4.6461   12.2243   27.1301 C   0  0  0  0  0  0  0  0  0  0  0  0
    5.6438   11.2397   27.7005 C   0  0  0  0  0  0  0  0  0  0  0  0
    6.8049   11.2347   26.8761 O   0  0  0  0  0  0  0  0  0  0  0  0
    6.7481   10.3495   25.8514 C   0  0  0  0  0  0  0  0  0  0  0  0
    5.8485    9.5373   25.7056 O   0  0  0  0  0  0  0  0  0  0  0  0
    7.8491   10.5167   24.9311 C   0  0  0  0  0  0  0  0  0  0  0  0
    8.4220    9.4543   24.3544 N   0  0  0  0  0  0  0  0  0  0  0  0
    9.3115    9.9709   23.4916 N   0  0  0  0  0  0  0  0  0  0  0  0
   10.0297    9.0393   22.6612 C   0  0  0  0  0  0  0  0  0  0  0  0
    9.4022   11.3442   23.5612 C   0  0  0  0  0  0  0  0  0  0  0  0
   10.2602   12.1243   22.8051 N   0  0  0  0  0  0  0  0  0  0  0  0
   10.7411   13.3297   23.3025 C   0  0  0  0  0  0  0  0  0  0  0  0
   10.8315   13.5729   24.5060 O   0  0  0  0  0  0  0  0  0  0  0  0
   11.0565   14.3495   22.2216 C   0  0  2  0  0  0  0  0  0  0  0  0
   12.1249   13.9486   21.2426 C   0  0  0  0  0  0  0  0  0  0  0  0
   11.4556   15.6265   22.7899 C   0  0  0  0  0  0  0  0  0  0  0  0
   11.7395   16.6998   23.1155 N   0  0  0  0  0  0  0  0  0  0  0  0
    8.4101   11.7112   24.4460 C   0  0  0  0  0  0  0  0  0  0  0  0
    7.7057   13.4264   24.7799 Br  0  0  0  0  0  0  0  0  0  0  0  0
  1  2  1  0
  2  3  1  0
  3  4  1  0
  4  5  2  0
  4  6  1  0
  6  7  2  0
  7  8  1  0
  8  9  1  0
  8 10  1  0
 10 11  1  0
 11 12  1  0
 12 13  2  0
 12 14  1  0
 14 15  1  6
 14 16  1  0
 16 17  3  0
 10 18  2  0
 18 19  1  0
 18  6  1  0
M  END
>  <distance_score>  (111) 
1.00171

>  <ref_pdb>  (111) 
A0310a

>  <ref_mols>  (111) 
A0556a,A0310a

>  <alias>  (111) 
None

>  <original SMILES>  (111) 
CCOC(=O)c1nn(C)c(NC(=O)[C@H](C)C#N)c1Br

>  <inchikey>  (111) 
ACIOWROMOYENEC-ZCFIWIBFSA-N

>  <exports>  (111) 
['/opt/xchem-fragalysis-2/maxwin/2A_HIPPO/hippo/A71EV2A_10_recipes/Recipe_1LPVPY0_poses.sdf']

>  <original ID>  (111) 
ACIOWROMOYENEC-ZCFIWIBFSA-N

>  <energy_score>  (111) 
-13.408674

>  <tags>  (111) 
[]

>  <HIPPO ID>  (111) 
85420

>  <name>  (111) 
ACIOWROMOYENEC-ZCFIWIBFSA-N

$$$$
ACIOWROMOYENEC-LURJTMIESA-N
     RDKit          3D

 19 19  0  0  0  0  0  0  0  0999 V2000
    4.4283   11.3812   27.4747 C   0  0  0  0  0  0  0  0  0  0  0  0
    5.2640   10.1205   27.2967 C   0  0  0  0  0  0  0  0  0  0  0  0
    6.0690   10.1371   26.1211 O   0  0  0  0  0  0  0  0  0  0  0  0
    6.9705   11.1418   26.0685 C   0  0  0  0  0  0  0  0  0  0  0  0
    7.0464   12.0506   26.8882 O   0  0  0  0  0  0  0  0  0  0  0  0
    7.8729   11.0267   24.9472 C   0  0  0  0  0  0  0  0  0  0  0  0
    8.3397    9.8619   24.4674 N   0  0  0  0  0  0  0  0  0  0  0  0
    9.2316   10.2312   23.5161 N   0  0  0  0  0  0  0  0  0  0  0  0
    9.9105    9.1860   22.7891 C   0  0  0  0  0  0  0  0  0  0  0  0
    9.4093   11.5974   23.4523 C   0  0  0  0  0  0  0  0  0  0  0  0
   10.3690   12.2724   22.7155 N   0  0  0  0  0  0  0  0  0  0  0  0
   10.9825   13.3785   23.2860 C   0  0  0  0  0  0  0  0  0  0  0  0
   10.9153   13.6166   24.4978 O   0  0  0  0  0  0  0  0  0  0  0  0
   11.8766   14.2233   22.3881 C   0  0  1  0  0  0  0  0  0  0  0  0
   11.5942   14.2366   20.8967 C   0  0  0  0  0  0  0  0  0  0  0  0
   11.8034   15.6121   22.8308 C   0  0  0  0  0  0  0  0  0  0  0  0
   11.7206   16.7407   23.0753 N   0  0  0  0  0  0  0  0  0  0  0  0
    8.4235   12.1071   24.2604 C   0  0  0  0  0  0  0  0  0  0  0  0
    7.7928   13.8616   24.4340 Br  0  0  0  0  0  0  0  0  0  0  0  0
  1  2  1  0
  2  3  1  0
  3  4  1  0
  4  5  2  0
  4  6  1  0
  6  7  2  0
  7  8  1  0
  8  9  1  0
  8 10  1  0
 10 11  1  0
 11 12  1  0
 12 13  2  0
 12 14  1  0
 14 15  1  6
 14 16  1  0
 16 17  3  0
 10 18  2  0
 18 19  1  0
 18  6  1  0
M  END
>  <distance_score>  (112) 
0.860581

>  <ref_pdb>  (112) 
A0310a

>  <ref_mols>  (112) 
A0556a,A0310a

>  <alias>  (112) 
None

>  <original SMILES>  (112) 
CCOC(=O)c1nn(C)c(NC(=O)[C@@H](C)C#N)c1Br

>  <inchikey>  (112) 
ACIOWROMOYENEC-LURJTMIESA-N

>  <exports>  (112) 
['/opt/xchem-fragalysis-2/maxwin/2A_HIPPO/hippo/A71EV2A_10_recipes/Recipe_1LPVPY0_poses.sdf']

>  <original ID>  (112) 
ACIOWROMOYENEC-LURJTMIESA-N

>  <energy_score>  (112) 
-12.63932

>  <tags>  (112) 
[]

>  <HIPPO ID>  (112) 
85421

>  <name>  (112) 
ACIOWROMOYENEC-LURJTMIESA-N

$$$$
FAIRPICKKGRXNB-ZDUSSCGKSA-N
     RDKit          3D

 20 20  0  0  0  0  0  0  0  0999 V2000
    5.9007   13.9918   25.6342 C   0  0  0  0  0  0  0  0  0  0  0  0
    5.6285   12.7607   26.4684 C   0  0  0  0  0  0  0  0  0  0  0  0
    6.8140   11.9778   26.5193 O   0  0  0  0  0  0  0  0  0  0  0  0
    6.7263   10.7563   25.9239 C   0  0  0  0  0  0  0  0  0  0  0  0
    5.8036    9.9749   26.0888 O   0  0  0  0  0  0  0  0  0  0  0  0
    7.8269   10.6295   24.9979 C   0  0  0  0  0  0  0  0  0  0  0  0
    8.5068   11.7602   24.5492 C   0  0  0  0  0  0  0  0  0  0  0  0
    9.4000   11.3603   23.6107 C   0  0  0  0  0  0  0  0  0  0  0  0
   10.2270   12.1922   22.8866 N   0  0  0  0  0  0  0  0  0  0  0  0
   10.4024   13.5283   23.3034 C   0  0  0  0  0  0  0  0  0  0  0  0
   10.0370   13.9847   24.3883 O   0  0  0  0  0  0  0  0  0  0  0  0
   11.2088   14.3803   22.3570 C   0  0  2  0  0  0  0  0  0  0  0  0
   12.5715   13.7622   22.4056 C   0  0  0  0  0  0  0  0  0  0  0  0
   11.4343   15.7383   22.8505 C   0  0  0  0  0  0  0  0  0  0  0  0
   11.6757   16.8418   23.1034 N   0  0  0  0  0  0  0  0  0  0  0  0
   10.5691   14.5025   20.9613 C   0  0  0  0  0  0  0  0  0  0  0  0
   11.5841   14.5643   19.8308 C   0  0  0  0  0  0  0  0  0  0  0  0
    9.2444    9.9937   23.5553 N   0  0  0  0  0  0  0  0  0  0  0  0
    9.9500    9.0367   22.7499 C   0  0  0  0  0  0  0  0  0  0  0  0
    8.2885    9.5269   24.4026 N   0  0  0  0  0  0  0  0  0  0  0  0
  1  2  1  0
  2  3  1  0
  3  4  1  0
  4  5  2  0
  4  6  1  0
  6  7  1  0
  7  8  2  0
  8  9  1  0
  9 10  1  0
 10 11  2  0
 10 12  1  0
 12 13  1  6
 12 14  1  0
 14 15  3  0
 12 16  1  0
 16 17  1  0
  8 18  1  0
 18 19  1  0
 18 20  1  0
 20  6  2  0
M  END
>  <distance_score>  (113) 
1.700865

>  <ref_pdb>  (113) 
A0310a

>  <ref_mols>  (113) 
A0556a,A0310a

>  <alias>  (113) 
None

>  <original SMILES>  (113) 
CCOC(=O)c1cc(NC(=O)[C@](C)(C#N)CC)n(C)n1

>  <inchikey>  (113) 
FAIRPICKKGRXNB-ZDUSSCGKSA-N

>  <exports>  (113) 
['/opt/xchem-fragalysis-2/maxwin/2A_HIPPO/hippo/A71EV2A_10_recipes/Recipe_1LPUPHX_poses.sdf', '/opt/xchem-fragalysis-2/maxwin/2A_HIPPO/hippo/A71EV2A_10_recipes/Recipe_1LPVPY0_poses.sdf']

>  <original ID>  (113) 
FAIRPICKKGRXNB-ZDUSSCGKSA-N

>  <energy_score>  (113) 
-10.45804

>  <tags>  (113) 
[]

>  <HIPPO ID>  (113) 
85823

>  <name>  (113) 
FAIRPICKKGRXNB-ZDUSSCGKSA-N

$$$$
FAIRPICKKGRXNB-CYBMUJFWSA-N
     RDKit          3D

 20 20  0  0  0  0  0  0  0  0999 V2000
    6.8871   14.5938   25.4751 C   0  0  0  0  0  0  0  0  0  0  0  0
    6.2813   13.2460   25.1324 C   0  0  0  0  0  0  0  0  0  0  0  0
    6.6146   12.2891   26.1584 O   0  0  0  0  0  0  0  0  0  0  0  0
    6.7842   10.9867   25.7675 C   0  0  0  0  0  0  0  0  0  0  0  0
    6.0622   10.0957   26.1901 O   0  0  0  0  0  0  0  0  0  0  0  0
    7.9526   10.7932   24.9243 C   0  0  0  0  0  0  0  0  0  0  0  0
    8.8927   11.7898   24.6816 C   0  0  0  0  0  0  0  0  0  0  0  0
    9.5997   11.4243   23.5777 C   0  0  0  0  0  0  0  0  0  0  0  0
   10.4378   12.2396   22.8287 N   0  0  0  0  0  0  0  0  0  0  0  0
   10.4827   13.6250   23.0898 C   0  0  0  0  0  0  0  0  0  0  0  0
    9.6680   14.2089   23.8057 O   0  0  0  0  0  0  0  0  0  0  0  0
   11.7159   14.3778   22.6161 C   0  0  1  0  0  0  0  0  0  0  0  0
   12.0733   14.0316   21.1852 C   0  0  0  0  0  0  0  0  0  0  0  0
   11.5386   15.8383   22.5934 C   0  0  0  0  0  0  0  0  0  0  0  0
   11.6388   16.9930   22.6286 N   0  0  0  0  0  0  0  0  0  0  0  0
   12.7866   14.2420   23.7155 C   0  0  0  0  0  0  0  0  0  0  0  0
   13.0653   12.9131   24.3443 C   0  0  0  0  0  0  0  0  0  0  0  0
    9.3208   10.0788   23.4691 N   0  0  0  0  0  0  0  0  0  0  0  0
    9.9703    9.0720   22.6793 C   0  0  0  0  0  0  0  0  0  0  0  0
    8.2890    9.6839   24.2590 N   0  0  0  0  0  0  0  0  0  0  0  0
  1  2  1  0
  2  3  1  0
  3  4  1  0
  4  5  2  0
  4  6  1  0
  6  7  1  0
  7  8  2  0
  8  9  1  0
  9 10  1  0
 10 11  2  0
 10 12  1  0
 12 13  1  6
 12 14  1  0
 14 15  3  0
 12 16  1  0
 16 17  1  0
  8 18  1  0
 18 19  1  0
 18 20  1  0
 20  6  2  0
M  END
>  <distance_score>  (114) 
1.307108

>  <ref_pdb>  (114) 
A0310a

>  <ref_mols>  (114) 
A0556a,A0310a

>  <alias>  (114) 
None

>  <original SMILES>  (114) 
CCOC(=O)c1cc(NC(=O)[C@@](C)(C#N)CC)n(C)n1

>  <inchikey>  (114) 
FAIRPICKKGRXNB-CYBMUJFWSA-N

>  <exports>  (114) 
['/opt/xchem-fragalysis-2/maxwin/2A_HIPPO/hippo/A71EV2A_10_recipes/Recipe_1LPUPHX_poses.sdf', '/opt/xchem-fragalysis-2/maxwin/2A_HIPPO/hippo/A71EV2A_10_recipes/Recipe_1LPVPY0_poses.sdf']

>  <original ID>  (114) 
FAIRPICKKGRXNB-CYBMUJFWSA-N

>  <energy_score>  (114) 
7.826959

>  <tags>  (114) 
[]

>  <HIPPO ID>  (114) 
85824

>  <name>  (114) 
FAIRPICKKGRXNB-CYBMUJFWSA-N

$$$$
ZCPWRPMDQXWWBJ-PJQLUOCWSA-N
     RDKit          3D

 20 20  0  0  0  0  0  0  0  0999 V2000
    4.4154   11.3824   27.4793 C   0  0  0  0  0  0  0  0  0  0  0  0
    5.2355   10.1103   27.3086 C   0  0  0  0  0  0  0  0  0  0  0  0
    6.0421   10.1115   26.1340 O   0  0  0  0  0  0  0  0  0  0  0  0
    6.9597   11.1005   26.0841 C   0  0  0  0  0  0  0  0  0  0  0  0
    7.0437   12.0118   26.9004 O   0  0  0  0  0  0  0  0  0  0  0  0
    7.8702   10.9696   24.9707 C   0  0  0  0  0  0  0  0  0  0  0  0
    8.3051    9.7989   24.4723 N   0  0  0  0  0  0  0  0  0  0  0  0
    9.2135   10.1575   23.5308 N   0  0  0  0  0  0  0  0  0  0  0  0
    9.8780    9.1165   22.7845 C   0  0  0  0  0  0  0  0  0  0  0  0
    9.4318   11.5155   23.4979 C   0  0  0  0  0  0  0  0  0  0  0  0
   10.4016   12.1748   22.7759 N   0  0  0  0  0  0  0  0  0  0  0  0
   11.0220   13.2673   23.3529 C   0  0  0  0  0  0  0  0  0  0  0  0
   11.0613   13.5347   24.5493 O   0  0  0  0  0  0  0  0  0  0  0  0
   11.6795   14.2071   22.3972 C   0  0  0  0  0  0  0  0  0  0  0  0
   11.7204   15.6113   22.6913 C   0  0  0  0  0  0  0  0  0  0  0  0
   11.7362   16.7487   22.9221 N   0  0  0  0  0  0  0  0  0  0  0  0
   12.2156   13.7939   21.2889 N   0  0  0  0  0  0  0  0  0  0  0  0
   12.5997   14.8695   20.4742 O   0  0  0  0  0  0  0  0  0  0  0  0
    8.4653   12.0446   24.3143 C   0  0  0  0  0  0  0  0  0  0  0  0
    7.9051   13.8223   24.5147 Br  0  0  0  0  0  0  0  0  0  0  0  0
  1  2  1  0
  2  3  1  0
  3  4  1  0
  4  5  2  0
  4  6  1  0
  6  7  2  0
  7  8  1  0
  8  9  1  0
  8 10  1  0
 10 11  1  0
 11 12  1  0
 12 13  2  0
 12 14  1  0
 14 15  1  0
 15 16  3  0
 14 17  2  0
 17 18  1  0
 10 19  2  0
 19 20  1  0
 19  6  1  0
M  END
>  <distance_score>  (115) 
0.86507

>  <ref_pdb>  (115) 
A0310a

>  <ref_mols>  (115) 
A0556a,A0310a

>  <alias>  (115) 
None

>  <original SMILES>  (115) 
CCOC(=O)c1nn(C)c(NC(=O)/C(C#N)=N/O)c1Br

>  <inchikey>  (115) 
ZCPWRPMDQXWWBJ-PJQLUOCWSA-N

>  <exports>  (115) 
['/opt/xchem-fragalysis-2/maxwin/2A_HIPPO/hippo/A71EV2A_10_recipes/Recipe_1LPVPY0_poses.sdf']

>  <original ID>  (115) 
ZCPWRPMDQXWWBJ-PJQLUOCWSA-N

>  <energy_score>  (115) 
-44.495105

>  <tags>  (115) 
[]

>  <HIPPO ID>  (115) 
85910

>  <name>  (115) 
ZCPWRPMDQXWWBJ-PJQLUOCWSA-N

$$$$
ZCPWRPMDQXWWBJ-WCSRMQSCSA-N
     RDKit          3D

 20 20  0  0  0  0  0  0  0  0999 V2000
    4.5909   12.1924   27.1699 C   0  0  0  0  0  0  0  0  0  0  0  0
    5.5776   11.1772   27.7042 C   0  0  0  0  0  0  0  0  0  0  0  0
    6.7478   11.2144   26.8946 O   0  0  0  0  0  0  0  0  0  0  0  0
    6.7128   10.3690   25.8363 C   0  0  0  0  0  0  0  0  0  0  0  0
    5.8354    9.5398   25.6535 O   0  0  0  0  0  0  0  0  0  0  0  0
    7.8202   10.5941   24.9371 C   0  0  0  0  0  0  0  0  0  0  0  0
    8.4340    9.5623   24.3521 N   0  0  0  0  0  0  0  0  0  0  0  0
    9.3264   10.1204   23.5199 N   0  0  0  0  0  0  0  0  0  0  0  0
   10.0703    9.2085   22.6895 C   0  0  0  0  0  0  0  0  0  0  0  0
    9.4075   11.4951   23.6485 C   0  0  0  0  0  0  0  0  0  0  0  0
   10.3105   12.3160   22.9870 N   0  0  0  0  0  0  0  0  0  0  0  0
   10.8112   13.4758   23.5813 C   0  0  0  0  0  0  0  0  0  0  0  0
   10.7064   13.7791   24.7656 O   0  0  0  0  0  0  0  0  0  0  0  0
   11.5487   14.4405   22.6822 C   0  0  0  0  0  0  0  0  0  0  0  0
   11.6296   15.8399   22.9174 C   0  0  0  0  0  0  0  0  0  0  0  0
   11.6790   16.9934   23.0214 N   0  0  0  0  0  0  0  0  0  0  0  0
   12.1746   14.1894   21.5833 N   0  0  0  0  0  0  0  0  0  0  0  0
   12.2939   12.8506   21.4123 O   0  0  0  0  0  0  0  0  0  0  0  0
    8.3670   11.8130   24.4971 C   0  0  0  0  0  0  0  0  0  0  0  0
    7.6166   13.5006   24.8585 Br  0  0  0  0  0  0  0  0  0  0  0  0
  1  2  1  0
  2  3  1  0
  3  4  1  0
  4  5  2  0
  4  6  1  0
  6  7  2  0
  7  8  1  0
  8  9  1  0
  8 10  1  0
 10 11  1  0
 11 12  1  0
 12 13  2  0
 12 14  1  0
 14 15  1  0
 15 16  3  0
 14 17  2  0
 17 18  1  0
 10 19  2  0
 19 20  1  0
 19  6  1  0
M  END
>  <distance_score>  (116) 
0.995224

>  <ref_pdb>  (116) 
A0310a

>  <ref_mols>  (116) 
A0556a,A0310a

>  <alias>  (116) 
None

>  <original SMILES>  (116) 
CCOC(=O)c1nn(C)c(NC(=O)/C(C#N)=N\O)c1Br

>  <inchikey>  (116) 
ZCPWRPMDQXWWBJ-WCSRMQSCSA-N

>  <exports>  (116) 
['/opt/xchem-fragalysis-2/maxwin/2A_HIPPO/hippo/A71EV2A_10_recipes/Recipe_1LPVPY0_poses.sdf']

>  <original ID>  (116) 
ZCPWRPMDQXWWBJ-WCSRMQSCSA-N

>  <energy_score>  (116) 
-37.949254

>  <tags>  (116) 
[]

>  <HIPPO ID>  (116) 
85911

>  <name>  (116) 
ZCPWRPMDQXWWBJ-WCSRMQSCSA-N

$$$$
MJMHQISKVDMWBR-UHFFFAOYSA-N
     RDKit          3D

 21 21  0  0  0  0  0  0  0  0999 V2000
    4.9611   13.7699   25.7604 C   0  0  0  0  0  0  0  0  0  0  0  0
    6.3323   13.2438   25.4273 C   0  0  0  0  0  0  0  0  0  0  0  0
    6.6309   12.1844   26.3550 O   0  0  0  0  0  0  0  0  0  0  0  0
    6.7273   10.9177   25.8480 C   0  0  0  0  0  0  0  0  0  0  0  0
    5.9373   10.0457   26.1777 O   0  0  0  0  0  0  0  0  0  0  0  0
    7.8868   10.7396   24.9905 C   0  0  0  0  0  0  0  0  0  0  0  0
    8.7966   11.7576   24.7099 C   0  0  0  0  0  0  0  0  0  0  0  0
    9.5671   11.3345   23.6746 C   0  0  0  0  0  0  0  0  0  0  0  0
   10.4182   12.1196   22.9290 N   0  0  0  0  0  0  0  0  0  0  0  0
   10.6994   13.4294   23.3617 C   0  0  0  0  0  0  0  0  0  0  0  0
   10.6528   13.7924   24.5388 O   0  0  0  0  0  0  0  0  0  0  0  0
   11.0384   14.4069   22.2400 C   0  0  0  0  0  0  0  0  0  0  0  0
   11.3841   15.7200   22.7850 C   0  0  0  0  0  0  0  0  0  0  0  0
   11.6912   16.7922   23.0956 N   0  0  0  0  0  0  0  0  0  0  0  0
   12.3188   13.9157   21.6208 C   0  0  0  0  0  0  0  0  0  0  0  0
   12.3320   13.8206   20.1302 C   0  0  0  0  0  0  0  0  0  0  0  0
    9.7791   14.5262   21.3539 C   0  0  0  0  0  0  0  0  0  0  0  0
    9.7394   15.5608   20.2369 C   0  0  0  0  0  0  0  0  0  0  0  0
    9.2567   10.0034   23.5434 N   0  0  0  0  0  0  0  0  0  0  0  0
    9.8932    9.0066   22.7279 C   0  0  0  0  0  0  0  0  0  0  0  0
    8.2277    9.6221   24.3395 N   0  0  0  0  0  0  0  0  0  0  0  0
  1  2  1  0
  2  3  1  0
  3  4  1  0
  4  5  2  0
  4  6  1  0
  6  7  1  0
  7  8  2  0
  8  9  1  0
  9 10  1  0
 10 11  2  0
 10 12  1  0
 12 13  1  0
 13 14  3  0
 12 15  1  0
 15 16  1  0
 12 17  1  0
 17 18  1  0
  8 19  1  0
 19 20  1  0
 19 21  1  0
 21  6  2  0
M  END
>  <distance_score>  (117) 
1.519937

>  <ref_pdb>  (117) 
A0310a

>  <ref_mols>  (117) 
A0556a,A0310a

>  <alias>  (117) 
None

>  <original SMILES>  (117) 
CCOC(=O)c1cc(NC(=O)C(C#N)(CC)CC)n(C)n1

>  <inchikey>  (117) 
MJMHQISKVDMWBR-UHFFFAOYSA-N

>  <exports>  (117) 
['/opt/xchem-fragalysis-2/maxwin/2A_HIPPO/hippo/A71EV2A_10_recipes/Recipe_1LPVPY0_poses.sdf']

>  <original ID>  (117) 
MJMHQISKVDMWBR-UHFFFAOYSA-N

>  <energy_score>  (117) 
7.125575

>  <tags>  (117) 
[]

>  <HIPPO ID>  (117) 
87239

>  <name>  (117) 
MJMHQISKVDMWBR-UHFFFAOYSA-N

$$$$
KFVJCMXHNMBFRU-ZDUSSCGKSA-N
     RDKit          3D

 21 21  0  0  0  0  0  0  0  0999 V2000
    4.2971   11.3640   27.6083 C   0  0  0  0  0  0  0  0  0  0  0  0
    5.1070   10.0825   27.4561 C   0  0  0  0  0  0  0  0  0  0  0  0
    5.9135   10.0720   26.2841 O   0  0  0  0  0  0  0  0  0  0  0  0
    6.8374   11.0529   26.2429 C   0  0  0  0  0  0  0  0  0  0  0  0
    6.9594   11.9421   27.0780 O   0  0  0  0  0  0  0  0  0  0  0  0
    7.6886   10.9615   25.0895 C   0  0  0  0  0  0  0  0  0  0  0  0
    8.2508    9.8267   24.6367 N   0  0  0  0  0  0  0  0  0  0  0  0
    9.0823   10.2511   23.6553 N   0  0  0  0  0  0  0  0  0  0  0  0
    9.8299    9.2640   22.9119 C   0  0  0  0  0  0  0  0  0  0  0  0
    9.1239   11.6244   23.5638 C   0  0  0  0  0  0  0  0  0  0  0  0
   10.0136   12.3653   22.8248 N   0  0  0  0  0  0  0  0  0  0  0  0
   10.4114   13.6056   23.3302 C   0  0  0  0  0  0  0  0  0  0  0  0
   10.2719   13.9442   24.5072 O   0  0  0  0  0  0  0  0  0  0  0  0
   11.2157   14.4324   22.3649 C   0  0  2  0  0  0  0  0  0  0  0  0
   12.5625   13.7775   22.4179 C   0  0  0  0  0  0  0  0  0  0  0  0
   11.4565   15.7904   22.8416 C   0  0  0  0  0  0  0  0  0  0  0  0
   11.6941   16.8982   23.0769 N   0  0  0  0  0  0  0  0  0  0  0  0
   10.5848   14.5465   20.9600 C   0  0  0  0  0  0  0  0  0  0  0  0
   11.6081   14.5750   19.8352 C   0  0  0  0  0  0  0  0  0  0  0  0
    8.0878   12.0633   24.3442 C   0  0  0  0  0  0  0  0  0  0  0  0
    7.2614   13.7472   24.4476 Br  0  0  0  0  0  0  0  0  0  0  0  0
  1  2  1  0
  2  3  1  0
  3  4  1  0
  4  5  2  0
  4  6  1  0
  6  7  2  0
  7  8  1  0
  8  9  1  0
  8 10  1  0
 10 11  1  0
 11 12  1  0
 12 13  2  0
 12 14  1  0
 14 15  1  6
 14 16  1  0
 16 17  3  0
 14 18  1  0
 18 19  1  0
 10 20  2  0
 20 21  1  0
 20  6  1  0
M  END
>  <distance_score>  (118) 
0.97615

>  <ref_pdb>  (118) 
A0310a

>  <ref_mols>  (118) 
A0556a,A0310a

>  <alias>  (118) 
None

>  <original SMILES>  (118) 
CCOC(=O)c1nn(C)c(NC(=O)[C@](C)(C#N)CC)c1Br

>  <inchikey>  (118) 
KFVJCMXHNMBFRU-ZDUSSCGKSA-N

>  <exports>  (118) 
['/opt/xchem-fragalysis-2/maxwin/2A_HIPPO/hippo/A71EV2A_10_recipes/Recipe_1LPVPY0_poses.sdf']

>  <original ID>  (118) 
KFVJCMXHNMBFRU-ZDUSSCGKSA-N

>  <energy_score>  (118) 
-13.709299

>  <tags>  (118) 
[]

>  <HIPPO ID>  (118) 
87454

>  <name>  (118) 
KFVJCMXHNMBFRU-ZDUSSCGKSA-N

$$$$
KFVJCMXHNMBFRU-CYBMUJFWSA-N
     RDKit          3D

 21 21  0  0  0  0  0  0  0  0999 V2000
    4.2972   11.3434   27.5966 C   0  0  0  0  0  0  0  0  0  0  0  0
    5.0906   10.0533   27.4271 C   0  0  0  0  0  0  0  0  0  0  0  0
    5.8951   10.0440   26.2531 O   0  0  0  0  0  0  0  0  0  0  0  0
    6.8396   11.0056   26.2286 C   0  0  0  0  0  0  0  0  0  0  0  0
    6.9507   11.8960   27.0645 O   0  0  0  0  0  0  0  0  0  0  0  0
    7.7317   10.8880   25.1050 C   0  0  0  0  0  0  0  0  0  0  0  0
    8.1947    9.7282   24.6032 N   0  0  0  0  0  0  0  0  0  0  0  0
    9.0902   10.1155   23.6634 N   0  0  0  0  0  0  0  0  0  0  0  0
    9.7770    9.1085   22.8896 C   0  0  0  0  0  0  0  0  0  0  0  0
    9.2562   11.4779   23.6314 C   0  0  0  0  0  0  0  0  0  0  0  0
   10.1972   12.1573   22.9031 N   0  0  0  0  0  0  0  0  0  0  0  0
   10.6738   13.3556   23.4233 C   0  0  0  0  0  0  0  0  0  0  0  0
   10.7922   13.5677   24.6301 O   0  0  0  0  0  0  0  0  0  0  0  0
   11.0198   14.3713   22.3673 C   0  0  1  0  0  0  0  0  0  0  0  0
    9.8182   14.5792   21.4343 C   0  0  0  0  0  0  0  0  0  0  0  0
   11.3847   15.6550   22.9552 C   0  0  0  0  0  0  0  0  0  0  0  0
   11.6871   16.7327   23.2461 N   0  0  0  0  0  0  0  0  0  0  0  0
   12.2615   13.9026   21.6663 C   0  0  0  0  0  0  0  0  0  0  0  0
   12.5734   14.7729   20.4810 C   0  0  0  0  0  0  0  0  0  0  0  0
    8.2747   11.9826   24.4422 C   0  0  0  0  0  0  0  0  0  0  0  0
    7.6475   13.7421   24.6535 Br  0  0  0  0  0  0  0  0  0  0  0  0
  1  2  1  0
  2  3  1  0
  3  4  1  0
  4  5  2  0
  4  6  1  0
  6  7  2  0
  7  8  1  0
  8  9  1  0
  8 10  1  0
 10 11  1  0
 11 12  1  0
 12 13  2  0
 12 14  1  0
 14 15  1  6
 14 16  1  0
 16 17  3  0
 14 18  1  0
 18 19  1  0
 10 20  2  0
 20 21  1  0
 20  6  1  0
M  END
>  <distance_score>  (119) 
0.937846

>  <ref_pdb>  (119) 
A0310a

>  <ref_mols>  (119) 
A0556a,A0310a

>  <alias>  (119) 
None

>  <original SMILES>  (119) 
CCOC(=O)c1nn(C)c(NC(=O)[C@@](C)(C#N)CC)c1Br

>  <inchikey>  (119) 
KFVJCMXHNMBFRU-CYBMUJFWSA-N

>  <exports>  (119) 
['/opt/xchem-fragalysis-2/maxwin/2A_HIPPO/hippo/A71EV2A_10_recipes/Recipe_1LPVPY0_poses.sdf']

>  <original ID>  (119) 
KFVJCMXHNMBFRU-CYBMUJFWSA-N

>  <energy_score>  (119) 
-5.696908

>  <tags>  (119) 
[]

>  <HIPPO ID>  (119) 
87455

>  <name>  (119) 
KFVJCMXHNMBFRU-CYBMUJFWSA-N

$$$$
YJRRPOSDDBJSEF-UHFFFAOYSA-N
     RDKit          3D

 22 22  0  0  0  0  0  0  0  0999 V2000
    4.5345   12.0933   27.3436 C   0  0  0  0  0  0  0  0  0  0  0  0
    5.4908   11.0331   27.8476 C   0  0  0  0  0  0  0  0  0  0  0  0
    6.6568   11.0434   27.0334 O   0  0  0  0  0  0  0  0  0  0  0  0
    6.5691   10.2448   25.9425 C   0  0  0  0  0  0  0  0  0  0  0  0
    5.6578    9.4609   25.7320 O   0  0  0  0  0  0  0  0  0  0  0  0
    7.6492   10.5000   25.0245 C   0  0  0  0  0  0  0  0  0  0  0  0
    8.3569    9.5026   24.4856 N   0  0  0  0  0  0  0  0  0  0  0  0
    9.1670   10.1056   23.6019 N   0  0  0  0  0  0  0  0  0  0  0  0
    9.9781    9.2415   22.7800 C   0  0  0  0  0  0  0  0  0  0  0  0
    9.0859   11.4858   23.6414 C   0  0  0  0  0  0  0  0  0  0  0  0
    9.8776   12.3400   22.8925 N   0  0  0  0  0  0  0  0  0  0  0  0
   10.1939   13.6211   23.3621 C   0  0  0  0  0  0  0  0  0  0  0  0
    9.8946   14.0514   24.4755 O   0  0  0  0  0  0  0  0  0  0  0  0
   11.1845   14.3633   22.4876 C   0  0  0  0  0  0  0  0  0  0  0  0
   11.4383   15.7358   22.9257 C   0  0  0  0  0  0  0  0  0  0  0  0
   11.6936   16.8478   23.1184 N   0  0  0  0  0  0  0  0  0  0  0  0
   10.6882   14.4904   21.0256 C   0  0  0  0  0  0  0  0  0  0  0  0
   11.8014   14.5216   19.9917 C   0  0  0  0  0  0  0  0  0  0  0  0
   12.5129   13.6454   22.6985 C   0  0  0  0  0  0  0  0  0  0  0  0
   12.7981   13.1795   24.1265 C   0  0  0  0  0  0  0  0  0  0  0  0
    8.0450   11.7428   24.5064 C   0  0  0  0  0  0  0  0  0  0  0  0
    7.0971   13.3416   24.8134 Br  0  0  0  0  0  0  0  0  0  0  0  0
  1  2  1  0
  2  3  1  0
  3  4  1  0
  4  5  2  0
  4  6  1  0
  6  7  2  0
  7  8  1  0
  8  9  1  0
  8 10  1  0
 10 11  1  0
 11 12  1  0
 12 13  2  0
 12 14  1  0
 14 15  1  0
 15 16  3  0
 14 17  1  0
 17 18  1  0
 14 19  1  0
 19 20  1  0
 10 21  2  0
 21 22  1  0
 21  6  1  0
M  END
>  <distance_score>  (120) 
1.025393

>  <ref_pdb>  (120) 
A0310a

>  <ref_mols>  (120) 
A0556a,A0310a

>  <alias>  (120) 
None

>  <original SMILES>  (120) 
CCOC(=O)c1nn(C)c(NC(=O)C(C#N)(CC)CC)c1Br

>  <inchikey>  (120) 
YJRRPOSDDBJSEF-UHFFFAOYSA-N

>  <exports>  (120) 
['/opt/xchem-fragalysis-2/maxwin/2A_HIPPO/hippo/A71EV2A_10_recipes/Recipe_1LPVPY0_poses.sdf']

>  <original ID>  (120) 
YJRRPOSDDBJSEF-UHFFFAOYSA-N

>  <energy_score>  (120) 
-10.084067

>  <tags>  (120) 
[]

>  <HIPPO ID>  (120) 
89006

>  <name>  (120) 
YJRRPOSDDBJSEF-UHFFFAOYSA-N

$$$$
FLWASAJBVPBCFC-UHFFFAOYSA-N
     RDKit          3D

 23 24  0  0  0  0  0  0  0  0999 V2000
   12.1894   13.2913   22.3426 C   0  0  0  0  0  0  0  0  0  0  0  0
   11.1390   14.2905   22.7071 C   0  0  0  0  0  0  0  0  0  0  0  0
   10.2733   14.5844   21.4813 C   0  0  0  0  0  0  0  0  0  0  0  0
   11.9128   15.5397   23.1328 C   0  0  0  0  0  0  0  0  0  0  0  0
   10.2966   13.6993   23.8443 C   0  0  0  0  0  0  0  0  0  0  0  0
   10.1910   14.2904   24.9215 O   0  0  0  0  0  0  0  0  0  0  0  0
    9.6651   12.4873   23.5928 N   0  0  0  0  0  0  0  0  0  0  0  0
    8.6142   12.0055   24.3749 C   0  0  0  0  0  0  0  0  0  0  0  0
    7.7540   12.9007   24.9906 C   0  0  0  0  0  0  0  0  0  0  0  0
    6.7269   12.4246   25.7862 C   0  0  0  0  0  0  0  0  0  0  0  0
    6.5603   11.0570   25.9503 C   0  0  0  0  0  0  0  0  0  0  0  0
    5.4420   10.6104   26.8152 C   0  0  0  0  0  0  0  0  0  0  0  0
    4.5784   11.4261   27.1132 O   0  0  0  0  0  0  0  0  0  0  0  0
    5.4533    9.3130   27.2682 N   0  0  0  0  0  0  0  0  0  0  0  0
    4.2991    8.5703   27.8956 C   0  0  0  0  0  0  0  0  0  0  0  0
    3.9666    7.3297   27.0455 C   0  0  0  0  0  0  0  0  0  0  0  0
    2.6906    6.9313   27.2332 F   0  0  0  0  0  0  0  0  0  0  0  0
    4.0824    7.6314   25.7208 F   0  0  0  0  0  0  0  0  0  0  0  0
    4.6083    8.2374   29.3887 C   0  0  0  0  0  0  0  0  0  0  0  0
    3.1174    8.4534   29.6880 C   0  0  0  0  0  0  0  0  0  0  0  0
    3.0790    9.3659   28.4480 C   0  0  0  0  0  0  0  0  0  0  0  0
    7.4301   10.2345   25.2509 C   0  0  0  0  0  0  0  0  0  0  0  0
    8.4464   10.6739   24.4608 N   0  0  0  0  0  0  0  0  0  0  0  0
  1  2  1  0
  2  3  1  0
  2  4  1  0
  2  5  1  0
  5  6  2  0
  5  7  1  0
  7  8  1  0
  8  9  2  0
  9 10  1  0
 10 11  2  0
 11 12  1  0
 12 13  2  0
 12 14  1  0
 14 15  1  0
 15 16  1  0
 16 17  1  0
 16 18  1  0
 15 19  1  0
 19 20  1  0
 20 21  1  0
 11 22  1  0
 22 23  2  0
 23  8  1  0
 21 15  1  0
M  END
>  <distance_score>  (121) 
1.439044

>  <ref_pdb>  (121) 
A0310a

>  <ref_mols>  (121) 
A0556a,A0310a

>  <alias>  (121) 
None

>  <original SMILES>  (121) 
CC(C)(C)C(=O)Nc1ccc(C(=O)NC2(C(F)F)CCC2)cn1

>  <inchikey>  (121) 
FLWASAJBVPBCFC-UHFFFAOYSA-N

>  <exports>  (121) 
['/opt/xchem-fragalysis-2/maxwin/2A_HIPPO/hippo/A71EV2A_10_recipes/Recipe_1LPUPHX_poses.sdf', '/opt/xchem-fragalysis-2/maxwin/2A_HIPPO/hippo/A71EV2A_10_recipes/Recipe_1LPVPY0_poses.sdf']

>  <original ID>  (121) 
FLWASAJBVPBCFC-UHFFFAOYSA-N

>  <energy_score>  (121) 
-25.510696

>  <tags>  (121) 
['Syndirella scaffold']

>  <HIPPO ID>  (121) 
91132

>  <name>  (121) 
FLWASAJBVPBCFC-UHFFFAOYSA-N

$$$$
MEWGRUZWHVKYDS-BJHJDKERSA-N
     RDKit          3D

 22 23  0  0  0  0  0  0  0  0999 V2000
    2.0723   10.7077   30.4391 C   0  0  0  0  0  0  0  0  0  0  0  0
    2.0785    9.1912   30.4993 C   0  0  0  0  0  0  0  0  0  0  0  0
    3.1214    8.5446   29.6066 C   0  0  2  0  0  0  0  0  0  0  0  0
    4.6066    9.0332   29.5978 C   0  0  0  0  0  0  0  0  0  0  0  0
    4.6192    8.5899   28.1271 C   0  0  2  0  0  0  0  0  0  0  0  0
    5.5193    9.2794   27.1905 N   0  0  0  0  0  0  0  0  0  0  0  0
    5.5550   10.5991   26.8182 C   0  0  0  0  0  0  0  0  0  0  0  0
    4.7876   11.4411   27.2689 O   0  0  0  0  0  0  0  0  0  0  0  0
    6.6069   11.0125   25.8381 C   0  0  0  0  0  0  0  0  0  0  0  0
    6.6664   12.3482   25.4742 C   0  0  0  0  0  0  0  0  0  0  0  0
    7.6890   12.7945   24.6447 C   0  0  0  0  0  0  0  0  0  0  0  0
    8.6803   11.9171   24.2217 C   0  0  0  0  0  0  0  0  0  0  0  0
    9.8406   12.4026   23.5864 N   0  0  0  0  0  0  0  0  0  0  0  0
   10.3559   13.6502   23.8997 C   0  0  0  0  0  0  0  0  0  0  0  0
    9.9088   14.3270   24.8326 O   0  0  0  0  0  0  0  0  0  0  0  0
   11.6416   14.1179   23.2115 C   0  0  0  0  0  0  0  0  0  0  0  0
   11.7517   15.6412   23.2568 C   0  0  0  0  0  0  0  0  0  0  0  0
   11.7163   13.7745   21.7401 C   0  0  0  0  0  0  0  0  0  0  0  0
   12.7798   13.5619   24.0606 C   0  0  0  0  0  0  0  0  0  0  0  0
    8.5878   10.5983   24.4558 N   0  0  0  0  0  0  0  0  0  0  0  0
    7.5607   10.1868   25.2561 C   0  0  0  0  0  0  0  0  0  0  0  0
    3.1125    8.8797   28.0939 C   0  0  0  0  0  0  0  0  0  0  0  0
  1  2  1  0
  3  2  1  1
  3  4  1  0
  4  5  1  0
  5  6  1  6
  6  7  1  0
  7  8  2  0
  7  9  1  0
  9 10  2  0
 10 11  1  0
 11 12  2  0
 12 13  1  0
 13 14  1  0
 14 15  2  0
 14 16  1  0
 16 17  1  0
 16 18  1  0
 16 19  1  0
 12 20  1  0
 20 21  2  0
  5 22  1  0
 22  3  1  0
 21  9  1  0
M  END
>  <distance_score>  (122) 
1.369881

>  <ref_pdb>  (122) 
A0310a

>  <ref_mols>  (122) 
A0556a,A0310a

>  <alias>  (122) 
None

>  <original SMILES>  (122) 
CC[C@H]1C[C@@H](NC(=O)c2ccc(NC(=O)C(C)(C)C)nc2)C1

>  <inchikey>  (122) 
MEWGRUZWHVKYDS-BJHJDKERSA-N

>  <exports>  (122) 
['/opt/xchem-fragalysis-2/maxwin/2A_HIPPO/hippo/A71EV2A_10_recipes/Recipe_1LPUPHX_poses.sdf', '/opt/xchem-fragalysis-2/maxwin/2A_HIPPO/hippo/A71EV2A_10_recipes/Recipe_1LPVPY0_poses.sdf']

>  <original ID>  (122) 
MEWGRUZWHVKYDS-BJHJDKERSA-N

>  <energy_score>  (122) 
-14.264857

>  <tags>  (122) 
['Syndirella scaffold']

>  <HIPPO ID>  (122) 
102019

>  <name>  (122) 
MEWGRUZWHVKYDS-BJHJDKERSA-N

$$$$
UMHSSHPJSPHPQR-BJHJDKERSA-N
     RDKit          3D

 23 24  0  0  0  0  0  0  0  0999 V2000
   11.8861   15.5881   23.3412 C   0  0  0  0  0  0  0  0  0  0  0  0
   11.3343   14.2201   22.9485 C   0  0  0  0  0  0  0  0  0  0  0  0
   10.8469   14.3219   21.4988 C   0  0  0  0  0  0  0  0  0  0  0  0
   12.4789   13.2561   23.1727 C   0  0  0  0  0  0  0  0  0  0  0  0
   10.2245   13.7162   23.8658 C   0  0  0  0  0  0  0  0  0  0  0  0
    9.9199   14.3410   24.8835 O   0  0  0  0  0  0  0  0  0  0  0  0
    9.6728   12.4756   23.5434 N   0  0  0  0  0  0  0  0  0  0  0  0
    8.5711   11.9751   24.2419 C   0  0  0  0  0  0  0  0  0  0  0  0
    7.6067   12.8660   24.6815 C   0  0  0  0  0  0  0  0  0  0  0  0
    6.5941   12.4180   25.5038 C   0  0  0  0  0  0  0  0  0  0  0  0
    6.5318   11.0761   25.8530 C   0  0  0  0  0  0  0  0  0  0  0  0
    5.4787   10.7016   26.8144 C   0  0  0  0  0  0  0  0  0  0  0  0
    4.6624   11.5550   27.1584 O   0  0  0  0  0  0  0  0  0  0  0  0
    5.4404    9.4342   27.3545 N   0  0  0  0  0  0  0  0  0  0  0  0
    4.4791    9.1565   28.4368 C   0  0  2  0  0  0  0  0  0  0  0  0
    4.5739    7.7688   29.0955 C   0  0  0  0  0  0  0  0  0  0  0  0
    3.0216    7.8169   29.2019 C   0  0  2  0  0  0  0  0  0  0  0  0
    2.2418    6.5242   29.0417 C   0  0  0  0  0  0  0  0  0  0  0  0
    2.2939    5.7855   30.3056 C   0  0  0  0  0  0  0  0  0  0  0  0
    2.3804    5.2581   31.3346 N   0  0  0  0  0  0  0  0  0  0  0  0
    3.0696    8.7283   27.9633 C   0  0  0  0  0  0  0  0  0  0  0  0
    7.4737   10.2373   25.2841 C   0  0  0  0  0  0  0  0  0  0  0  0
    8.4877   10.6512   24.4739 N   0  0  0  0  0  0  0  0  0  0  0  0
  1  2  1  0
  2  3  1  0
  2  4  1  0
  2  5  1  0
  5  6  2  0
  5  7  1  0
  7  8  1  0
  8  9  2  0
  9 10  1  0
 10 11  2  0
 11 12  1  0
 12 13  2  0
 12 14  1  0
 15 14  1  6
 15 16  1  0
 16 17  1  0
 17 18  1  6
 18 19  1  0
 19 20  3  0
 17 21  1  0
 11 22  1  0
 22 23  2  0
 23  8  1  0
 21 15  1  0
M  END
>  <distance_score>  (123) 
1.354046

>  <ref_pdb>  (123) 
A0310a

>  <ref_mols>  (123) 
A0556a,A0310a

>  <alias>  (123) 
None

>  <original SMILES>  (123) 
CC(C)(C)C(=O)Nc1ccc(C(=O)N[C@H]2C[C@@H](CC#N)C2)cn1

>  <inchikey>  (123) 
UMHSSHPJSPHPQR-BJHJDKERSA-N

>  <exports>  (123) 
['/opt/xchem-fragalysis-2/maxwin/2A_HIPPO/hippo/A71EV2A_10_recipes/Recipe_1LPUPHX_poses.sdf', '/opt/xchem-fragalysis-2/maxwin/2A_HIPPO/hippo/A71EV2A_10_recipes/Recipe_1LPVPY0_poses.sdf']

>  <original ID>  (123) 
UMHSSHPJSPHPQR-BJHJDKERSA-N

>  <energy_score>  (123) 
-17.041857

>  <tags>  (123) 
[]

>  <HIPPO ID>  (123) 
102325

>  <name>  (123) 
UMHSSHPJSPHPQR-BJHJDKERSA-N

$$$$
ADKGLDCQLGUTAN-MQMHXKEQSA-N
     RDKit          3D

 22 23  0  0  0  0  0  0  0  0999 V2000
   11.6313   16.1376   22.6886 C   0  0  0  0  0  0  0  0  0  0  0  0
   12.4853   14.9232   22.4940 C   0  0  0  0  0  0  0  0  0  0  0  0
   11.6415   13.6820   22.2807 C   0  0  0  0  0  0  0  0  0  0  0  0
   10.8820   13.2195   23.4996 C   0  0  0  0  0  0  0  0  0  0  0  0
   10.8886   13.7984   24.5827 O   0  0  0  0  0  0  0  0  0  0  0  0
   10.1168   12.0862   23.2732 N   0  0  0  0  0  0  0  0  0  0  0  0
    9.1132   11.7303   24.2493 C   0  0  0  0  0  0  0  0  0  0  0  0
    7.9323   12.6832   24.1971 C   0  0  0  0  0  0  0  0  0  0  0  0
    6.9804   12.4084   25.3405 C   0  0  0  0  0  0  0  0  0  0  0  0
    6.6148   11.0074   25.5240 N   0  0  0  0  0  0  0  0  0  0  0  0
    5.5975   10.8311   26.4648 C   0  0  0  0  0  0  0  0  0  0  0  0
    4.9018   11.7685   26.8554 O   0  0  0  0  0  0  0  0  0  0  0  0
    5.4136    9.5708   26.9788 N   0  0  0  0  0  0  0  0  0  0  0  0
    4.3060    9.2909   27.9183 C   0  0  2  0  0  0  0  0  0  0  0  0
    4.6812    8.4565   29.1593 C   0  0  0  0  0  0  0  0  0  0  0  0
    3.2854    7.7812   29.0372 C   0  0  1  0  0  0  0  0  0  0  0  0
    2.1122    8.4415   29.7679 C   0  0  0  0  0  0  0  0  0  0  0  0
    2.2026    8.1851   31.2091 C   0  0  0  0  0  0  0  0  0  0  0  0
    2.2958    7.9659   32.3441 N   0  0  0  0  0  0  0  0  0  0  0  0
    3.3812    8.1054   27.5258 C   0  0  0  0  0  0  0  0  0  0  0  0
    7.6387   10.0076   25.2775 C   0  0  0  0  0  0  0  0  0  0  0  0
    8.6615   10.2916   24.1886 C   0  0  0  0  0  0  0  0  0  0  0  0
  1  2  1  0
  2  3  1  0
  3  4  1  0
  4  5  2  0
  4  6  1  0
  6  7  1  0
  7  8  1  0
  8  9  1  0
  9 10  1  0
 10 11  1  0
 11 12  2  0
 11 13  1  0
 14 13  1  6
 14 15  1  0
 15 16  1  0
 16 17  1  1
 17 18  1  0
 18 19  3  0
 16 20  1  0
 10 21  1  0
 21 22  1  0
 22  7  1  0
 20 14  1  0
M  END
>  <distance_score>  (124) 
1.132658

>  <ref_pdb>  (124) 
A0310a

>  <ref_mols>  (124) 
A0556a,A0310a

>  <alias>  (124) 
None

>  <original SMILES>  (124) 
CCCC(=O)NC1CCN(C(=O)N[C@H]2C[C@H](CC#N)C2)CC1

>  <inchikey>  (124) 
ADKGLDCQLGUTAN-MQMHXKEQSA-N

>  <exports>  (124) 
['/opt/xchem-fragalysis-2/maxwin/2A_HIPPO/hippo/A71EV2A_10_recipes/Recipe_1LPUPHX_poses.sdf', '/opt/xchem-fragalysis-2/maxwin/2A_HIPPO/hippo/A71EV2A_10_recipes/Recipe_1LPVPY0_poses.sdf']

>  <original ID>  (124) 
ADKGLDCQLGUTAN-MQMHXKEQSA-N

>  <energy_score>  (124) 
-36.267566

>  <tags>  (124) 
['Syndirella scaffold']

>  <HIPPO ID>  (124) 
105218

>  <name>  (124) 
ADKGLDCQLGUTAN-MQMHXKEQSA-N

$$$$
IYMYWPRHFTWNME-HAQNSBGRSA-N
     RDKit          3D

 23 25  0  0  0  0  0  0  0  0999 V2000
   -0.0530    8.8099   28.6694 N   0  0  0  0  0  0  0  0  0  0  0  0
    0.9410    8.7198   29.2608 C   0  0  0  0  0  0  0  0  0  0  0  0
    2.2458    8.6389   29.9285 C   0  0  0  0  0  0  0  0  0  0  0  0
    3.2595    7.8333   29.0962 C   0  0  2  0  0  0  0  0  0  0  0  0
    4.7242    8.3662   29.1797 C   0  0  0  0  0  0  0  0  0  0  0  0
    4.3644    9.2613   27.9692 C   0  0  1  0  0  0  0  0  0  0  0  0
    5.4578    9.5609   27.0208 N   0  0  0  0  0  0  0  0  0  0  0  0
    5.6395   10.8451   26.5720 C   0  0  0  0  0  0  0  0  0  0  0  0
    4.9308   11.7511   27.0118 O   0  0  0  0  0  0  0  0  0  0  0  0
    6.6680   11.0904   25.6714 N   0  0  0  0  0  0  0  0  0  0  0  0
    7.6388   10.1095   25.2378 C   0  0  0  0  0  0  0  0  0  0  0  0
    8.6342   10.5087   24.1499 C   0  0  0  0  0  0  0  0  0  0  0  0
    8.5268   11.9293   23.5930 C   0  0  0  0  0  0  0  0  0  0  0  0
    9.7749   12.5204   23.1394 N   0  0  0  0  0  0  0  0  0  0  0  0
    9.7955   13.5681   22.2754 C   0  0  0  0  0  0  0  0  0  0  0  0
    8.8038   14.0807   21.7861 O   0  0  0  0  0  0  0  0  0  0  0  0
   11.1758   14.1204   22.1605 C   0  0  0  0  0  0  0  0  0  0  0  0
   11.8143   13.6167   23.4258 C   0  0  0  0  0  0  0  0  0  0  0  0
   10.7331   12.7964   24.0162 C   0  0  0  0  0  0  0  0  0  0  0  0
   10.6276   12.5450   25.1952 O   0  0  0  0  0  0  0  0  0  0  0  0
    7.6344   12.9228   24.3274 C   0  0  0  0  0  0  0  0  0  0  0  0
    7.1191   12.4666   25.6599 C   0  0  0  0  0  0  0  0  0  0  0  0
    3.3979    8.1200   27.5669 C   0  0  0  0  0  0  0  0  0  0  0  0
  1  2  3  0
  2  3  1  0
  4  3  1  1
  4  5  1  0
  5  6  1  0
  6  7  1  6
  7  8  1  0
  8  9  2  0
  8 10  1  0
 10 11  1  0
 11 12  1  0
 12 13  1  0
 13 14  1  0
 14 15  1  0
 15 16  2  0
 15 17  1  0
 17 18  1  0
 18 19  1  0
 19 20  2  0
 13 21  1  0
 21 22  1  0
  6 23  1  0
 23  4  1  0
 22 10  1  0
 19 14  1  0
M  END
>  <distance_score>  (125) 
1.884565

>  <ref_pdb>  (125) 
A0310a

>  <ref_mols>  (125) 
A0556a,A0310a

>  <alias>  (125) 
None

>  <original SMILES>  (125) 
N#CC[C@H]1C[C@H](NC(=O)N2CCC(N3C(=O)CCC3=O)CC2)C1

>  <inchikey>  (125) 
IYMYWPRHFTWNME-HAQNSBGRSA-N

>  <exports>  (125) 
['/opt/xchem-fragalysis-2/maxwin/2A_HIPPO/hippo/A71EV2A_10_recipes/Recipe_1LPVPY0_poses.sdf']

>  <original ID>  (125) 
IYMYWPRHFTWNME-HAQNSBGRSA-N

>  <energy_score>  (125) 
-36.179518

>  <tags>  (125) 
[]

>  <HIPPO ID>  (125) 
105771

>  <name>  (125) 
IYMYWPRHFTWNME-HAQNSBGRSA-N

$$$$
BKBFLODZEQEWBQ-HXUWFJFHSA-N
     RDKit          3D

 29 31  0  0  0  0  0  0  0  0999 V2000
    6.0422   10.3516   27.0419 C   0  0  0  0  0  0  0  0  0  0  0  0
    7.1361   10.6013   26.0708 C   0  0  0  0  0  0  0  0  0  0  0  0
    7.5638    9.6078   25.2907 N   0  0  0  0  0  0  0  0  0  0  0  0
    8.5016   10.1680   24.5011 N   0  0  0  0  0  0  0  0  0  0  0  0
    9.1609    9.3578   23.5002 C   0  0  0  0  0  0  0  0  0  0  0  0
    8.7083   11.4958   24.7820 C   0  0  0  0  0  0  0  0  0  0  0  0
    9.6745   12.3491   24.0467 C   0  0  0  0  0  0  0  0  0  0  0  0
    7.8528   11.8029   25.8280 C   0  0  0  0  0  0  0  0  0  0  0  0
    7.7071   13.1117   26.5313 C   0  0  0  0  0  0  0  0  0  0  0  0
    6.8212   14.1478   25.8592 C   0  0  0  0  0  0  0  0  0  0  0  0
    6.8599   15.3148   26.2450 O   0  0  0  0  0  0  0  0  0  0  0  0
    5.9813   13.6887   24.8862 N   0  0  0  0  0  0  0  0  0  0  0  0
    4.9301   14.4478   24.2259 C   0  0  2  0  0  0  0  0  0  0  0  0
    5.3910   15.6272   23.3591 C   0  0  0  0  0  0  0  0  0  0  0  0
    6.6824   15.5922   22.7031 N   0  0  0  0  0  0  0  0  0  0  0  0
    7.2467   14.5604   22.0073 C   0  0  0  0  0  0  0  0  0  0  0  0
    6.7518   13.4349   21.9381 O   0  0  0  0  0  0  0  0  0  0  0  0
    8.6140   14.8791   21.4083 C   0  0  0  0  0  0  0  0  0  0  0  0
    8.7785   16.5976   20.9968 Cl  0  0  0  0  0  0  0  0  0  0  0  0
    3.7442   14.6991   25.1601 C   0  0  0  0  0  0  0  0  0  0  0  0
    3.0963   15.9334   25.2766 C   0  0  0  0  0  0  0  0  0  0  0  0
    1.9306   16.0701   26.0377 C   0  0  0  0  0  0  0  0  0  0  0  0
    1.3986   14.9801   26.7368 C   0  0  0  0  0  0  0  0  0  0  0  0
    0.2168   15.0933   27.4845 C   0  0  0  0  0  0  0  0  0  0  0  0
   -0.2802   14.0012   28.1953 C   0  0  0  0  0  0  0  0  0  0  0  0
    0.4058   12.7906   28.1822 C   0  0  0  0  0  0  0  0  0  0  0  0
    1.5772   12.6621   27.4378 C   0  0  0  0  0  0  0  0  0  0  0  0
    2.0748   13.7439   26.6951 C   0  0  0  0  0  0  0  0  0  0  0  0
    3.2268   13.6213   25.9020 C   0  0  0  0  0  0  0  0  0  0  0  0
  1  2  1  0
  2  3  2  0
  3  4  1  0
  4  5  1  0
  4  6  1  0
  6  7  1  0
  6  8  2  0
  8  9  1  0
  9 10  1  0
 10 11  2  0
 10 12  1  0
 12 13  1  0
 13 14  1  1
 14 15  1  0
 15 16  1  0
 16 17  2  0
 16 18  1  0
 18 19  1  0
 13 20  1  0
 20 21  2  0
 21 22  1  0
 22 23  2  0
 23 24  1  0
 24 25  2  0
 25 26  1  0
 26 27  2  0
 27 28  1  0
 28 29  2  0
  8  2  1  0
 29 20  1  0
 28 23  1  0
M  END
>  <distance_score>  (126) 
0.34888

>  <ref_pdb>  (126) 
A1346a

>  <ref_mols>  (126) 
A1346a

>  <alias>  (126) 
None

>  <original SMILES>  (126) 
Cc1nn(C)c(C)c1CC(=O)N[C@H](CNC(=O)CCl)c1ccc2ccccc2c1

>  <inchikey>  (126) 
BKBFLODZEQEWBQ-HXUWFJFHSA-N

>  <exports>  (126) 
['/opt/xchem-fragalysis-2/maxwin/2A_HIPPO/hippo/A71EV2A_10_recipes/Recipe_1LPUPHX_poses.sdf', '/opt/xchem-fragalysis-2/maxwin/2A_HIPPO/hippo/A71EV2A_10_recipes/Recipe_1LPVPY0_poses.sdf']

>  <original ID>  (126) 
BKBFLODZEQEWBQ-HXUWFJFHSA-N

>  <energy_score>  (126) 
-31.972745

>  <tags>  (126) 
['Syndirella scaffold']

>  <HIPPO ID>  (126) 
109261

>  <name>  (126) 
BKBFLODZEQEWBQ-HXUWFJFHSA-N

$$$$
BKBFLODZEQEWBQ-FQEVSTJZSA-N
     RDKit          3D

 29 31  0  0  0  0  0  0  0  0999 V2000
    6.0003   10.2873   27.0183 C   0  0  0  0  0  0  0  0  0  0  0  0
    7.0839   10.5670   26.0442 C   0  0  0  0  0  0  0  0  0  0  0  0
    7.5141    9.5962   25.2376 N   0  0  0  0  0  0  0  0  0  0  0  0
    8.4586   10.1782   24.4739 N   0  0  0  0  0  0  0  0  0  0  0  0
    9.1538    9.3853   23.4861 C   0  0  0  0  0  0  0  0  0  0  0  0
    8.6619   11.4977   24.7874 C   0  0  0  0  0  0  0  0  0  0  0  0
    9.6398   12.3677   24.0856 C   0  0  0  0  0  0  0  0  0  0  0  0
    7.8135   11.7679   25.8488 C   0  0  0  0  0  0  0  0  0  0  0  0
    7.7398   13.0117   26.6575 C   0  0  0  0  0  0  0  0  0  0  0  0
    7.0009   14.1962   26.0930 C   0  0  0  0  0  0  0  0  0  0  0  0
    7.1844   15.2994   26.6125 O   0  0  0  0  0  0  0  0  0  0  0  0
    6.1359   13.9910   25.0546 N   0  0  0  0  0  0  0  0  0  0  0  0
    5.2281   15.0419   24.6051 C   0  0  1  0  0  0  0  0  0  0  0  0
    5.0718   15.0583   23.0677 C   0  0  0  0  0  0  0  0  0  0  0  0
    6.3013   15.4477   22.3922 N   0  0  0  0  0  0  0  0  0  0  0  0
    7.2494   14.5478   21.9881 C   0  0  0  0  0  0  0  0  0  0  0  0
    7.0597   13.3314   22.0849 O   0  0  0  0  0  0  0  0  0  0  0  0
    8.5625   15.0942   21.4446 C   0  0  0  0  0  0  0  0  0  0  0  0
    8.5252   16.8354   21.1384 Cl  0  0  0  0  0  0  0  0  0  0  0  0
    3.8807   14.9767   25.3152 C   0  0  0  0  0  0  0  0  0  0  0  0
    3.0861   16.1306   25.3695 C   0  0  0  0  0  0  0  0  0  0  0  0
    1.8459   16.1274   26.0091 C   0  0  0  0  0  0  0  0  0  0  0  0
    1.3861   14.9766   26.6582 C   0  0  0  0  0  0  0  0  0  0  0  0
    0.1577   14.9659   27.3350 C   0  0  0  0  0  0  0  0  0  0  0  0
   -0.2635   13.8269   28.0188 C   0  0  0  0  0  0  0  0  0  0  0  0
    0.5381   12.6893   28.0392 C   0  0  0  0  0  0  0  0  0  0  0  0
    1.7539   12.6807   27.3572 C   0  0  0  0  0  0  0  0  0  0  0  0
    2.1870   13.8131   26.6501 C   0  0  0  0  0  0  0  0  0  0  0  0
    3.4071   13.8190   25.9510 C   0  0  0  0  0  0  0  0  0  0  0  0
  1  2  1  0
  2  3  2  0
  3  4  1  0
  4  5  1  0
  4  6  1  0
  6  7  1  0
  6  8  2  0
  8  9  1  0
  9 10  1  0
 10 11  2  0
 10 12  1  0
 12 13  1  0
 13 14  1  6
 14 15  1  0
 15 16  1  0
 16 17  2  0
 16 18  1  0
 18 19  1  0
 13 20  1  0
 20 21  2  0
 21 22  1  0
 22 23  2  0
 23 24  1  0
 24 25  2  0
 25 26  1  0
 26 27  2  0
 27 28  1  0
 28 29  2  0
  8  2  1  0
 29 20  1  0
 28 23  1  0
M  END
>  <distance_score>  (127) 
0.196626

>  <ref_pdb>  (127) 
A1346a

>  <ref_mols>  (127) 
A1346a

>  <alias>  (127) 
None

>  <original SMILES>  (127) 
Cc1nn(C)c(C)c1CC(=O)N[C@@H](CNC(=O)CCl)c1ccc2ccccc2c1

>  <inchikey>  (127) 
BKBFLODZEQEWBQ-FQEVSTJZSA-N

>  <exports>  (127) 
['/opt/xchem-fragalysis-2/maxwin/2A_HIPPO/hippo/A71EV2A_10_recipes/Recipe_1LPUPHX_poses.sdf', '/opt/xchem-fragalysis-2/maxwin/2A_HIPPO/hippo/A71EV2A_10_recipes/Recipe_1LPVPY0_poses.sdf']

>  <original ID>  (127) 
BKBFLODZEQEWBQ-FQEVSTJZSA-N

>  <energy_score>  (127) 
-41.161612

>  <tags>  (127) 
['Syndirella scaffold']

>  <HIPPO ID>  (127) 
109262

>  <name>  (127) 
BKBFLODZEQEWBQ-FQEVSTJZSA-N

$$$$
ZRQLWTLHYWCXLC-NRFANRHFSA-N
     RDKit          3D

 30 32  0  0  0  0  0  0  0  0999 V2000
    9.6419   14.6382   21.3323 C   0  0  0  0  0  0  0  0  0  0  0  0
    8.4969   15.3084   21.4983 C   0  0  0  0  0  0  0  0  0  0  0  0
    8.4423   16.9881   21.1214 Cl  0  0  0  0  0  0  0  0  0  0  0  0
    7.2614   14.6242   22.0125 C   0  0  0  0  0  0  0  0  0  0  0  0
    7.1778   13.4001   22.1072 O   0  0  0  0  0  0  0  0  0  0  0  0
    6.2330   15.4588   22.3585 N   0  0  0  0  0  0  0  0  0  0  0  0
    5.0401   15.0004   23.0537 C   0  0  0  0  0  0  0  0  0  0  0  0
    5.2125   15.0160   24.5901 C   0  0  2  0  0  0  0  0  0  0  0  0
    6.1233   13.9742   25.0527 N   0  0  0  0  0  0  0  0  0  0  0  0
    6.9839   14.1922   26.0929 C   0  0  0  0  0  0  0  0  0  0  0  0
    7.1779   15.3053   26.5864 O   0  0  0  0  0  0  0  0  0  0  0  0
    7.6955   13.0072   26.6943 C   0  0  0  0  0  0  0  0  0  0  0  0
    7.7833   11.7573   25.8951 C   0  0  0  0  0  0  0  0  0  0  0  0
    7.0443   10.5599   26.0739 C   0  0  0  0  0  0  0  0  0  0  0  0
    5.9517   10.2802   27.0375 C   0  0  0  0  0  0  0  0  0  0  0  0
    7.4717    9.5932   25.2605 N   0  0  0  0  0  0  0  0  0  0  0  0
    8.4429   10.1675   24.5249 N   0  0  0  0  0  0  0  0  0  0  0  0
    9.1431    9.3767   23.5386 C   0  0  0  0  0  0  0  0  0  0  0  0
    8.6604   11.4789   24.8602 C   0  0  0  0  0  0  0  0  0  0  0  0
    9.6746   12.3418   24.2069 C   0  0  0  0  0  0  0  0  0  0  0  0
    3.8702   14.9610   25.3107 C   0  0  0  0  0  0  0  0  0  0  0  0
    3.0835   16.1201   25.3682 C   0  0  0  0  0  0  0  0  0  0  0  0
    1.8457   16.1244   26.0125 C   0  0  0  0  0  0  0  0  0  0  0  0
    1.3811   14.9764   26.6630 C   0  0  0  0  0  0  0  0  0  0  0  0
    0.1549   14.9729   27.3437 C   0  0  0  0  0  0  0  0  0  0  0  0
   -0.2706   13.8366   28.0295 C   0  0  0  0  0  0  0  0  0  0  0  0
    0.5249   12.6948   28.0485 C   0  0  0  0  0  0  0  0  0  0  0  0
    1.7384   12.6788   27.3624 C   0  0  0  0  0  0  0  0  0  0  0  0
    2.1752   13.8082   26.6529 C   0  0  0  0  0  0  0  0  0  0  0  0
    3.3926   13.8065   25.9491 C   0  0  0  0  0  0  0  0  0  0  0  0
  1  2  2  0
  2  3  1  0
  2  4  1  0
  4  5  2  0
  4  6  1  0
  6  7  1  0
  8  7  1  6
  8  9  1  0
  9 10  1  0
 10 11  2  0
 10 12  1  0
 12 13  1  0
 13 14  1  0
 14 15  1  0
 14 16  2  0
 16 17  1  0
 17 18  1  0
 17 19  1  0
 19 20  1  0
  8 21  1  0
 21 22  2  0
 22 23  1  0
 23 24  2  0
 24 25  1  0
 25 26  2  0
 26 27  1  0
 27 28  2  0
 28 29  1  0
 29 30  2  0
 19 13  2  0
 30 21  1  0
 29 24  1  0
M  END
>  <distance_score>  (128) 
0.2076

>  <ref_pdb>  (128) 
A1346a

>  <ref_mols>  (128) 
A1346a

>  <alias>  (128) 
None

>  <original SMILES>  (128) 
C=C(Cl)C(=O)NC[C@H](NC(=O)Cc1c(C)nn(C)c1C)c1ccc2ccccc2c1

>  <inchikey>  (128) 
ZRQLWTLHYWCXLC-NRFANRHFSA-N

>  <exports>  (128) 
['/opt/xchem-fragalysis-2/maxwin/2A_HIPPO/hippo/A71EV2A_10_recipes/Recipe_1LPUPHX_poses.sdf', '/opt/xchem-fragalysis-2/maxwin/2A_HIPPO/hippo/A71EV2A_10_recipes/Recipe_1LPVPY0_poses.sdf']

>  <original ID>  (128) 
ZRQLWTLHYWCXLC-NRFANRHFSA-N

>  <energy_score>  (128) 
-90.584366

>  <tags>  (128) 
[]

>  <HIPPO ID>  (128) 
109267

>  <name>  (128) 
ZRQLWTLHYWCXLC-NRFANRHFSA-N

$$$$
ZRQLWTLHYWCXLC-OAQYLSRUSA-N
     RDKit          3D

 30 32  0  0  0  0  0  0  0  0999 V2000
    9.6444   14.4724   21.2855 C   0  0  0  0  0  0  0  0  0  0  0  0
    8.5558   15.2292   21.4374 C   0  0  0  0  0  0  0  0  0  0  0  0
    8.6097   16.8865   20.9569 Cl  0  0  0  0  0  0  0  0  0  0  0  0
    7.2935   14.6978   22.0681 C   0  0  0  0  0  0  0  0  0  0  0  0
    6.9848   13.5098   22.0418 O   0  0  0  0  0  0  0  0  0  0  0  0
    6.5770   15.6862   22.6722 N   0  0  0  0  0  0  0  0  0  0  0  0
    5.3081   15.6360   23.3611 C   0  0  0  0  0  0  0  0  0  0  0  0
    4.9045   14.4425   24.2317 C   0  0  1  0  0  0  0  0  0  0  0  0
    5.9759   13.7079   24.8851 N   0  0  0  0  0  0  0  0  0  0  0  0
    6.7938   14.1704   25.8749 C   0  0  0  0  0  0  0  0  0  0  0  0
    6.8288   15.3408   26.2496 O   0  0  0  0  0  0  0  0  0  0  0  0
    7.6526   13.1330   26.5834 C   0  0  0  0  0  0  0  0  0  0  0  0
    7.8176   11.8202   25.8906 C   0  0  0  0  0  0  0  0  0  0  0  0
    7.0918   10.6184   26.1035 C   0  0  0  0  0  0  0  0  0  0  0  0
    5.9789   10.3593   27.0499 C   0  0  0  0  0  0  0  0  0  0  0  0
    7.5342    9.6319   25.3214 N   0  0  0  0  0  0  0  0  0  0  0  0
    8.5042   10.1929   24.5756 N   0  0  0  0  0  0  0  0  0  0  0  0
    9.1820    9.3915   23.5821 C   0  0  0  0  0  0  0  0  0  0  0  0
    8.7222   11.5099   24.8887 C   0  0  0  0  0  0  0  0  0  0  0  0
    9.7418   12.3647   24.2350 C   0  0  0  0  0  0  0  0  0  0  0  0
    3.7182   14.6733   25.1744 C   0  0  0  0  0  0  0  0  0  0  0  0
    3.0527   15.8992   25.2990 C   0  0  0  0  0  0  0  0  0  0  0  0
    1.8905   16.0198   26.0669 C   0  0  0  0  0  0  0  0  0  0  0  0
    1.3791   14.9222   26.7672 C   0  0  0  0  0  0  0  0  0  0  0  0
    0.2008   15.0204   27.5218 C   0  0  0  0  0  0  0  0  0  0  0  0
   -0.2769   13.9217   28.2350 C   0  0  0  0  0  0  0  0  0  0  0  0
    0.4252   12.7205   28.2170 C   0  0  0  0  0  0  0  0  0  0  0  0
    1.5939   12.6075   27.4657 C   0  0  0  0  0  0  0  0  0  0  0  0
    2.0725   13.6956   26.7198 C   0  0  0  0  0  0  0  0  0  0  0  0
    3.2213   13.5886   25.9186 C   0  0  0  0  0  0  0  0  0  0  0  0
  1  2  2  0
  2  3  1  0
  2  4  1  0
  4  5  2  0
  4  6  1  0
  6  7  1  0
  8  7  1  1
  8  9  1  0
  9 10  1  0
 10 11  2  0
 10 12  1  0
 12 13  1  0
 13 14  1  0
 14 15  1  0
 14 16  2  0
 16 17  1  0
 17 18  1  0
 17 19  1  0
 19 20  1  0
  8 21  1  0
 21 22  2  0
 22 23  1  0
 23 24  2  0
 24 25  1  0
 25 26  2  0
 26 27  1  0
 27 28  2  0
 28 29  1  0
 29 30  2  0
 19 13  2  0
 30 21  1  0
 29 24  1  0
M  END
>  <distance_score>  (129) 
0.34898

>  <ref_pdb>  (129) 
A1346a

>  <ref_mols>  (129) 
A1346a

>  <alias>  (129) 
None

>  <original SMILES>  (129) 
C=C(Cl)C(=O)NC[C@@H](NC(=O)Cc1c(C)nn(C)c1C)c1ccc2ccccc2c1

>  <inchikey>  (129) 
ZRQLWTLHYWCXLC-OAQYLSRUSA-N

>  <exports>  (129) 
['/opt/xchem-fragalysis-2/maxwin/2A_HIPPO/hippo/A71EV2A_10_recipes/Recipe_1LPUPHX_poses.sdf', '/opt/xchem-fragalysis-2/maxwin/2A_HIPPO/hippo/A71EV2A_10_recipes/Recipe_1LPVPY0_poses.sdf']

>  <original ID>  (129) 
ZRQLWTLHYWCXLC-OAQYLSRUSA-N

>  <energy_score>  (129) 
-37.935986

>  <tags>  (129) 
[]

>  <HIPPO ID>  (129) 
109268

>  <name>  (129) 
ZRQLWTLHYWCXLC-OAQYLSRUSA-N

$$$$
IPCGSPWUHYDDIL-JCYRPKCISA-N
     RDKit          3D

 34 37  0  0  0  0  0  0  0  0999 V2000
   11.5896   14.0274   21.0342 C   0  0  0  0  0  0  0  0  0  0  0  0
   10.1890   14.3027   20.5898 C   0  0  0  0  0  0  0  0  0  0  0  0
    9.3588   13.5174   20.2199 O   0  0  0  0  0  0  0  0  0  0  0  0
    9.7413   15.6579   20.6482 C   0  0  2  0  0  0  0  0  0  0  0  0
    9.7905   16.2141   22.0117 C   0  0  0  0  0  0  0  0  0  0  0  0
    8.4597   16.0832   21.3278 C   0  0  1  0  0  0  0  0  0  0  0  0
    7.9252   17.6894   20.7085 Cl  0  0  0  0  0  0  0  0  0  0  0  0
    7.4269   15.1422   21.9450 C   0  0  0  0  0  0  0  0  0  0  0  0
    7.6157   13.9440   22.1456 O   0  0  0  0  0  0  0  0  0  0  0  0
    6.2552   15.7391   22.3372 N   0  0  0  0  0  0  0  0  0  0  0  0
    5.1625   15.0466   23.0073 C   0  0  0  0  0  0  0  0  0  0  0  0
    5.3064   15.0425   24.5486 C   0  0  2  0  0  0  0  0  0  0  0  0
    6.2243   14.0087   25.0107 N   0  0  0  0  0  0  0  0  0  0  0  0
    7.0301   14.2025   26.0974 C   0  0  0  0  0  0  0  0  0  0  0  0
    7.1433   15.2889   26.6696 O   0  0  0  0  0  0  0  0  0  0  0  0
    7.8028   13.0262   26.6364 C   0  0  0  0  0  0  0  0  0  0  0  0
    7.8444   11.7727   25.8386 C   0  0  0  0  0  0  0  0  0  0  0  0
    7.1035   10.5809   26.0487 C   0  0  0  0  0  0  0  0  0  0  0  0
    6.0304   10.3181   27.0388 C   0  0  0  0  0  0  0  0  0  0  0  0
    7.5079    9.6014   25.2378 N   0  0  0  0  0  0  0  0  0  0  0  0
    8.4533   10.1695   24.4603 N   0  0  0  0  0  0  0  0  0  0  0  0
    9.1335    9.3672   23.4684 C   0  0  0  0  0  0  0  0  0  0  0  0
    8.6707   11.4884   24.7647 C   0  0  0  0  0  0  0  0  0  0  0  0
    9.6424   12.3478   24.0415 C   0  0  0  0  0  0  0  0  0  0  0  0
    3.9540   14.9634   25.2541 C   0  0  0  0  0  0  0  0  0  0  0  0
    3.1491   16.1107   25.3040 C   0  0  0  0  0  0  0  0  0  0  0  0
    1.9078   16.1021   25.9422 C   0  0  0  0  0  0  0  0  0  0  0  0
    1.4558   14.9519   26.5967 C   0  0  0  0  0  0  0  0  0  0  0  0
    0.2261   14.9363   27.2718 C   0  0  0  0  0  0  0  0  0  0  0  0
   -0.1873   13.7991   27.9632 C   0  0  0  0  0  0  0  0  0  0  0  0
    0.6245   12.6691   27.9943 C   0  0  0  0  0  0  0  0  0  0  0  0
    1.8426   12.6666   27.3156 C   0  0  0  0  0  0  0  0  0  0  0  0
    2.2672   13.7956   26.5972 C   0  0  0  0  0  0  0  0  0  0  0  0
    3.4888   13.8065   25.8975 C   0  0  0  0  0  0  0  0  0  0  0  0
  1  2  1  0
  2  3  2  0
  4  2  1  1
  4  5  1  0
  5  6  1  0
  6  7  1  6
  6  8  1  0
  8  9  2  0
  8 10  1  0
 10 11  1  0
 12 11  1  6
 12 13  1  0
 13 14  1  0
 14 15  2  0
 14 16  1  0
 16 17  1  0
 17 18  1  0
 18 19  1  0
 18 20  2  0
 20 21  1  0
 21 22  1  0
 21 23  1  0
 23 24  1  0
 12 25  1  0
 25 26  2  0
 26 27  1  0
 27 28  2  0
 28 29  1  0
 29 30  2  0
 30 31  1  0
 31 32  2  0
 32 33  1  0
 33 34  2  0
  6  4  1  0
 23 17  2  0
 34 25  1  0
 33 28  1  0
M  END
>  <distance_score>  (130) 
0.399086

>  <ref_pdb>  (130) 
A1346a

>  <ref_mols>  (130) 
A1346a

>  <alias>  (130) 
None

>  <original SMILES>  (130) 
CC(=O)[C@@H]1C[C@]1(Cl)C(=O)NC[C@H](NC(=O)Cc1c(C)nn(C)c1C)c1ccc2ccccc2c1

>  <inchikey>  (130) 
IPCGSPWUHYDDIL-JCYRPKCISA-N

>  <exports>  (130) 
['/opt/xchem-fragalysis-2/maxwin/2A_HIPPO/hippo/A71EV2A_10_recipes/Recipe_1LPVPY0_poses.sdf']

>  <original ID>  (130) 
IPCGSPWUHYDDIL-JCYRPKCISA-N

>  <energy_score>  (130) 
-40.102795

>  <tags>  (130) 
[]

>  <HIPPO ID>  (130) 
109402

>  <name>  (130) 
IPCGSPWUHYDDIL-JCYRPKCISA-N

$$$$
IPCGSPWUHYDDIL-MVERNJQCSA-N
     RDKit          3D

 34 37  0  0  0  0  0  0  0  0999 V2000
   12.0396   14.4564   20.7536 C   0  0  0  0  0  0  0  0  0  0  0  0
   10.6529   14.5571   20.2362 C   0  0  0  0  0  0  0  0  0  0  0  0
   10.3773   14.6716   19.0564 O   0  0  0  0  0  0  0  0  0  0  0  0
    9.6287   14.3407   21.2558 C   0  0  1  0  0  0  0  0  0  0  0  0
    9.6966   15.1170   22.5168 C   0  0  0  0  0  0  0  0  0  0  0  0
    8.5115   15.2953   21.5823 C   0  0  1  0  0  0  0  0  0  0  0  0
    8.4836   16.9234   20.8703 Cl  0  0  0  0  0  0  0  0  0  0  0  0
    7.1977   14.6720   22.0031 C   0  0  0  0  0  0  0  0  0  0  0  0
    7.0521   13.4493   22.0311 O   0  0  0  0  0  0  0  0  0  0  0  0
    6.2193   15.5382   22.4084 N   0  0  0  0  0  0  0  0  0  0  0  0
    5.0100   15.0895   23.0760 C   0  0  0  0  0  0  0  0  0  0  0  0
    5.1804   15.0290   24.6112 C   0  0  2  0  0  0  0  0  0  0  0  0
    6.0453   13.9293   25.0312 N   0  0  0  0  0  0  0  0  0  0  0  0
    6.9412   14.0894   26.0559 C   0  0  0  0  0  0  0  0  0  0  0  0
    7.3365   15.1897   26.4449 O   0  0  0  0  0  0  0  0  0  0  0  0
    7.3628   12.8467   26.8014 C   0  0  0  0  0  0  0  0  0  0  0  0
    7.5791   11.6111   26.0028 C   0  0  0  0  0  0  0  0  0  0  0  0
    6.8739   10.3865   26.1243 C   0  0  0  0  0  0  0  0  0  0  0  0
    5.7458   10.0619   27.0304 C   0  0  0  0  0  0  0  0  0  0  0  0
    7.3669    9.4485   25.3141 N   0  0  0  0  0  0  0  0  0  0  0  0
    8.3509   10.0637   24.6366 N   0  0  0  0  0  0  0  0  0  0  0  0
    9.0789    9.3479   23.6119 C   0  0  0  0  0  0  0  0  0  0  0  0
    8.5405   11.3585   25.0403 C   0  0  0  0  0  0  0  0  0  0  0  0
    9.5930   12.2183   24.4671 C   0  0  0  0  0  0  0  0  0  0  0  0
    3.8335   14.9864   25.3288 C   0  0  0  0  0  0  0  0  0  0  0  0
    3.0608   16.1546   25.3902 C   0  0  0  0  0  0  0  0  0  0  0  0
    1.8218   16.1712   26.0323 C   0  0  0  0  0  0  0  0  0  0  0  0
    1.3413   15.0264   26.6774 C   0  0  0  0  0  0  0  0  0  0  0  0
    0.1139   15.0345   27.3558 C   0  0  0  0  0  0  0  0  0  0  0  0
   -0.3267   13.9003   28.0356 C   0  0  0  0  0  0  0  0  0  0  0  0
    0.4543   12.7486   28.0501 C   0  0  0  0  0  0  0  0  0  0  0  0
    1.6676   12.7204   27.3648 C   0  0  0  0  0  0  0  0  0  0  0  0
    2.1200   13.8487   26.6634 C   0  0  0  0  0  0  0  0  0  0  0  0
    3.3388   13.8356   25.9632 C   0  0  0  0  0  0  0  0  0  0  0  0
  1  2  1  0
  2  3  2  0
  4  2  1  6
  4  5  1  0
  5  6  1  0
  6  7  1  6
  6  8  1  0
  8  9  2  0
  8 10  1  0
 10 11  1  0
 12 11  1  6
 12 13  1  0
 13 14  1  0
 14 15  2  0
 14 16  1  0
 16 17  1  0
 17 18  1  0
 18 19  1  0
 18 20  2  0
 20 21  1  0
 21 22  1  0
 21 23  1  0
 23 24  1  0
 12 25  1  0
 25 26  2  0
 26 27  1  0
 27 28  2  0
 28 29  1  0
 29 30  2  0
 30 31  1  0
 31 32  2  0
 32 33  1  0
 33 34  2  0
  6  4  1  0
 23 17  2  0
 34 25  1  0
 33 28  1  0
M  END
>  <distance_score>  (131) 
0.2415

>  <ref_pdb>  (131) 
A1346a

>  <ref_mols>  (131) 
A1346a

>  <alias>  (131) 
None

>  <original SMILES>  (131) 
CC(=O)[C@H]1C[C@]1(Cl)C(=O)NC[C@H](NC(=O)Cc1c(C)nn(C)c1C)c1ccc2ccccc2c1

>  <inchikey>  (131) 
IPCGSPWUHYDDIL-MVERNJQCSA-N

>  <exports>  (131) 
['/opt/xchem-fragalysis-2/maxwin/2A_HIPPO/hippo/A71EV2A_10_recipes/Recipe_1LPVPY0_poses.sdf']

>  <original ID>  (131) 
IPCGSPWUHYDDIL-MVERNJQCSA-N

>  <energy_score>  (131) 
-51.619541

>  <tags>  (131) 
[]

>  <HIPPO ID>  (131) 
109403

>  <name>  (131) 
IPCGSPWUHYDDIL-MVERNJQCSA-N

$$$$
IPCGSPWUHYDDIL-FXSPECFOSA-N
     RDKit          3D

 34 37  0  0  0  0  0  0  0  0999 V2000
   12.1215   15.5774   22.4040 C   0  0  0  0  0  0  0  0  0  0  0  0
   10.9526   14.9046   22.9765 C   0  0  0  0  0  0  0  0  0  0  0  0
   10.9279   14.7055   24.1875 O   0  0  0  0  0  0  0  0  0  0  0  0
    9.8864   14.3813   22.1173 C   0  0  2  0  0  0  0  0  0  0  0  0
    9.6936   14.6033   20.6672 C   0  0  0  0  0  0  0  0  0  0  0  0
    8.6865   15.1947   21.6356 C   0  0  2  0  0  0  0  0  0  0  0  0
    8.7053   16.9675   21.4272 Cl  0  0  0  0  0  0  0  0  0  0  0  0
    7.3453   14.5739   21.9865 C   0  0  0  0  0  0  0  0  0  0  0  0
    7.1728   13.3565   21.9714 O   0  0  0  0  0  0  0  0  0  0  0  0
    6.3565   15.4447   22.3741 N   0  0  0  0  0  0  0  0  0  0  0  0
    5.1273   15.0195   23.0300 C   0  0  0  0  0  0  0  0  0  0  0  0
    5.2583   15.0049   24.5730 C   0  0  2  0  0  0  0  0  0  0  0  0
    6.1036   13.9123   25.0437 N   0  0  0  0  0  0  0  0  0  0  0  0
    6.8878   14.0629   26.1635 C   0  0  0  0  0  0  0  0  0  0  0  0
    7.2645   15.1576   26.5839 O   0  0  0  0  0  0  0  0  0  0  0  0
    7.1828   12.8025   26.9516 C   0  0  0  0  0  0  0  0  0  0  0  0
    7.4539   11.5750   26.1536 C   0  0  0  0  0  0  0  0  0  0  0  0
    6.7721   10.3368   26.2048 C   0  0  0  0  0  0  0  0  0  0  0  0
    5.6262    9.9615   27.0646 C   0  0  0  0  0  0  0  0  0  0  0  0
    7.3035    9.4428   25.3676 N   0  0  0  0  0  0  0  0  0  0  0  0
    8.3024   10.1002   24.7515 N   0  0  0  0  0  0  0  0  0  0  0  0
    9.0615    9.4475   23.7076 C   0  0  0  0  0  0  0  0  0  0  0  0
    8.4617   11.3697   25.2317 C   0  0  0  0  0  0  0  0  0  0  0  0
    9.5095   12.3035   24.7913 C   0  0  0  0  0  0  0  0  0  0  0  0
    3.8944   14.9806   25.2648 C   0  0  0  0  0  0  0  0  0  0  0  0
    3.1338   16.1562   25.3150 C   0  0  0  0  0  0  0  0  0  0  0  0
    1.8905   16.1912   25.9503 C   0  0  0  0  0  0  0  0  0  0  0  0
    1.3913   15.0568   26.5996 C   0  0  0  0  0  0  0  0  0  0  0  0
    0.1615   15.0839   27.2741 C   0  0  0  0  0  0  0  0  0  0  0  0
   -0.2962   13.9591   27.9584 C   0  0  0  0  0  0  0  0  0  0  0  0
    0.4705   12.7983   27.9820 C   0  0  0  0  0  0  0  0  0  0  0  0
    1.6857   12.7516   27.3009 C   0  0  0  0  0  0  0  0  0  0  0  0
    2.1549   13.8698   26.5940 C   0  0  0  0  0  0  0  0  0  0  0  0
    3.3769   13.8383   25.8986 C   0  0  0  0  0  0  0  0  0  0  0  0
  1  2  1  0
  2  3  2  0
  4  2  1  1
  4  5  1  0
  5  6  1  0
  6  7  1  1
  6  8  1  0
  8  9  2  0
  8 10  1  0
 10 11  1  0
 12 11  1  6
 12 13  1  0
 13 14  1  0
 14 15  2  0
 14 16  1  0
 16 17  1  0
 17 18  1  0
 18 19  1  0
 18 20  2  0
 20 21  1  0
 21 22  1  0
 21 23  1  0
 23 24  1  0
 12 25  1  0
 25 26  2  0
 26 27  1  0
 27 28  2  0
 28 29  1  0
 29 30  2  0
 30 31  1  0
 31 32  2  0
 32 33  1  0
 33 34  2  0
  6  4  1  0
 23 17  2  0
 34 25  1  0
 33 28  1  0
M  END
>  <distance_score>  (132) 
0.310339

>  <ref_pdb>  (132) 
A1346a

>  <ref_mols>  (132) 
A1346a

>  <alias>  (132) 
None

>  <original SMILES>  (132) 
CC(=O)[C@@H]1C[C@@]1(Cl)C(=O)NC[C@H](NC(=O)Cc1c(C)nn(C)c1C)c1ccc2ccccc2c1

>  <inchikey>  (132) 
IPCGSPWUHYDDIL-FXSPECFOSA-N

>  <exports>  (132) 
['/opt/xchem-fragalysis-2/maxwin/2A_HIPPO/hippo/A71EV2A_10_recipes/Recipe_1LPVPY0_poses.sdf']

>  <original ID>  (132) 
IPCGSPWUHYDDIL-FXSPECFOSA-N

>  <energy_score>  (132) 
-44.341585

>  <tags>  (132) 
[]

>  <HIPPO ID>  (132) 
109404

>  <name>  (132) 
IPCGSPWUHYDDIL-FXSPECFOSA-N

$$$$
IPCGSPWUHYDDIL-UMFSSWHCSA-N
     RDKit          3D

 34 37  0  0  0  0  0  0  0  0999 V2000
   11.6300   13.8842   23.1524 C   0  0  0  0  0  0  0  0  0  0  0  0
   10.2829   14.5264   23.2116 C   0  0  0  0  0  0  0  0  0  0  0  0
    9.5539   14.4405   24.1918 O   0  0  0  0  0  0  0  0  0  0  0  0
    9.9528   15.3711   22.0577 C   0  0  1  0  0  0  0  0  0  0  0  0
    9.6376   14.7897   20.7153 C   0  0  0  0  0  0  0  0  0  0  0  0
    8.5663   15.5456   21.4747 C   0  0  2  0  0  0  0  0  0  0  0  0
    8.2950   17.2323   20.8971 Cl  0  0  0  0  0  0  0  0  0  0  0  0
    7.3454   14.8028   21.9667 C   0  0  0  0  0  0  0  0  0  0  0  0
    7.2245   13.5845   21.8517 O   0  0  0  0  0  0  0  0  0  0  0  0
    6.3530   15.5881   22.4958 N   0  0  0  0  0  0  0  0  0  0  0  0
    5.1422   15.0617   23.1050 C   0  0  0  0  0  0  0  0  0  0  0  0
    5.2695   14.9560   24.6415 C   0  0  2  0  0  0  0  0  0  0  0  0
    6.1527   13.8614   25.0296 N   0  0  0  0  0  0  0  0  0  0  0  0
    7.0079   13.9867   26.0879 C   0  0  0  0  0  0  0  0  0  0  0  0
    7.1096   15.0262   26.7470 O   0  0  0  0  0  0  0  0  0  0  0  0
    7.8561   12.8043   26.4766 C   0  0  0  0  0  0  0  0  0  0  0  0
    7.7185   11.4963   25.7749 C   0  0  0  0  0  0  0  0  0  0  0  0
    6.9503   10.3659   26.1569 C   0  0  0  0  0  0  0  0  0  0  0  0
    5.9384   10.2563   27.2338 C   0  0  0  0  0  0  0  0  0  0  0  0
    7.2778    9.2832   25.4420 N   0  0  0  0  0  0  0  0  0  0  0  0
    8.2326    9.7124   24.6013 N   0  0  0  0  0  0  0  0  0  0  0  0
    9.0001    8.7985   23.7914 C   0  0  0  0  0  0  0  0  0  0  0  0
    8.4039   11.0546   24.6600 C   0  0  0  0  0  0  0  0  0  0  0  0
    9.2501   11.7368   23.6851 C   0  0  0  0  0  0  0  0  0  0  0  0
    3.9103   14.8919   25.3297 C   0  0  0  0  0  0  0  0  0  0  0  0
    3.1124   16.0458   25.3586 C   0  0  0  0  0  0  0  0  0  0  0  0
    1.8668   16.0519   25.9872 C   0  0  0  0  0  0  0  0  0  0  0  0
    1.4044   14.9115   26.6519 C   0  0  0  0  0  0  0  0  0  0  0  0
    0.1712   14.9106   27.3200 C   0  0  0  0  0  0  0  0  0  0  0  0
   -0.2523   13.7831   28.0214 C   0  0  0  0  0  0  0  0  0  0  0  0
    0.5513   12.6475   28.0675 C   0  0  0  0  0  0  0  0  0  0  0  0
    1.7725   12.6294   27.3954 C   0  0  0  0  0  0  0  0  0  0  0  0
    2.2086   13.7498   26.6713 C   0  0  0  0  0  0  0  0  0  0  0  0
    3.4359   13.7461   25.9844 C   0  0  0  0  0  0  0  0  0  0  0  0
  1  2  1  0
  2  3  2  0
  4  2  1  1
  4  5  1  0
  5  6  1  0
  6  7  1  6
  6  8  1  0
  8  9  2  0
  8 10  1  0
 10 11  1  0
 12 11  1  6
 12 13  1  0
 13 14  1  0
 14 15  2  0
 14 16  1  0
 16 17  1  0
 17 18  1  0
 18 19  1  0
 18 20  2  0
 20 21  1  0
 21 22  1  0
 21 23  1  0
 23 24  1  0
 12 25  1  0
 25 26  2  0
 26 27  1  0
 27 28  2  0
 28 29  1  0
 29 30  2  0
 30 31  1  0
 31 32  2  0
 32 33  1  0
 33 34  2  0
  6  4  1  0
 23 17  2  0
 34 25  1  0
 33 28  1  0
M  END
>  <distance_score>  (133) 
0.326978

>  <ref_pdb>  (133) 
A1346a

>  <ref_mols>  (133) 
A1346a

>  <alias>  (133) 
None

>  <original SMILES>  (133) 
CC(=O)[C@H]1C[C@@]1(Cl)C(=O)NC[C@H](NC(=O)Cc1c(C)nn(C)c1C)c1ccc2ccccc2c1

>  <inchikey>  (133) 
IPCGSPWUHYDDIL-UMFSSWHCSA-N

>  <exports>  (133) 
['/opt/xchem-fragalysis-2/maxwin/2A_HIPPO/hippo/A71EV2A_10_recipes/Recipe_1LPVPY0_poses.sdf']

>  <original ID>  (133) 
IPCGSPWUHYDDIL-UMFSSWHCSA-N

>  <energy_score>  (133) 
-45.232674

>  <tags>  (133) 
[]

>  <HIPPO ID>  (133) 
109405

>  <name>  (133) 
IPCGSPWUHYDDIL-UMFSSWHCSA-N

$$$$
IPCGSPWUHYDDIL-PPJWLVRDSA-N
     RDKit          3D

 34 37  0  0  0  0  0  0  0  0999 V2000
   10.0234   13.4261   21.9275 C   0  0  0  0  0  0  0  0  0  0  0  0
    9.9713   14.1416   20.5847 C   0  0  0  0  0  0  0  0  0  0  0  0
   10.3405   13.7266   19.4994 O   0  0  0  0  0  0  0  0  0  0  0  0
    9.6172   15.5490   20.6049 C   0  0  2  0  0  0  0  0  0  0  0  0
    9.7300   16.2587   21.9026 C   0  0  0  0  0  0  0  0  0  0  0  0
    8.3832   16.1073   21.2380 C   0  0  1  0  0  0  0  0  0  0  0  0
    7.9093   17.7094   20.5477 Cl  0  0  0  0  0  0  0  0  0  0  0  0
    7.2967   15.2601   21.8813 C   0  0  0  0  0  0  0  0  0  0  0  0
    7.0603   14.0987   21.5579 O   0  0  0  0  0  0  0  0  0  0  0  0
    6.6201   15.9465   22.8507 N   0  0  0  0  0  0  0  0  0  0  0  0
    5.2706   15.6922   23.2966 C   0  0  0  0  0  0  0  0  0  0  0  0
    4.9118   14.5053   24.2061 C   0  0  1  0  0  0  0  0  0  0  0  0
    5.9873   13.7629   24.8475 N   0  0  0  0  0  0  0  0  0  0  0  0
    6.7120   14.1885   25.9292 C   0  0  0  0  0  0  0  0  0  0  0  0
    6.8299   15.3659   26.2603 O   0  0  0  0  0  0  0  0  0  0  0  0
    7.3123   13.0898   26.8052 C   0  0  0  0  0  0  0  0  0  0  0  0
    7.5868   11.7952   26.1139 C   0  0  0  0  0  0  0  0  0  0  0  0
    6.8774   10.5715   26.2007 C   0  0  0  0  0  0  0  0  0  0  0  0
    5.7167   10.2347   27.0573 C   0  0  0  0  0  0  0  0  0  0  0  0
    7.3915    9.6446   25.3896 N   0  0  0  0  0  0  0  0  0  0  0  0
    8.4294   10.2533   24.7841 N   0  0  0  0  0  0  0  0  0  0  0  0
    9.1710    9.5484   23.7610 C   0  0  0  0  0  0  0  0  0  0  0  0
    8.6341   11.5253   25.2532 C   0  0  0  0  0  0  0  0  0  0  0  0
    9.7653   12.4007   24.8866 C   0  0  0  0  0  0  0  0  0  0  0  0
    3.7144   14.7034   25.1544 C   0  0  0  0  0  0  0  0  0  0  0  0
    3.0325   15.9167   25.3169 C   0  0  0  0  0  0  0  0  0  0  0  0
    1.8732   16.0068   26.0945 C   0  0  0  0  0  0  0  0  0  0  0  0
    1.3818   14.8915   26.7772 C   0  0  0  0  0  0  0  0  0  0  0  0
    0.2107   14.9641   27.5456 C   0  0  0  0  0  0  0  0  0  0  0  0
   -0.2446   13.8497   28.2478 C   0  0  0  0  0  0  0  0  0  0  0  0
    0.4737   12.6589   28.2049 C   0  0  0  0  0  0  0  0  0  0  0  0
    1.6347   12.5723   27.4376 C   0  0  0  0  0  0  0  0  0  0  0  0
    2.0905   13.6760   26.6996 C   0  0  0  0  0  0  0  0  0  0  0  0
    3.2314   13.5985   25.8803 C   0  0  0  0  0  0  0  0  0  0  0  0
  1  2  1  0
  2  3  2  0
  4  2  1  1
  4  5  1  0
  5  6  1  0
  6  7  1  6
  6  8  1  0
  8  9  2  0
  8 10  1  0
 10 11  1  0
 12 11  1  1
 12 13  1  0
 13 14  1  0
 14 15  2  0
 14 16  1  0
 16 17  1  0
 17 18  1  0
 18 19  1  0
 18 20  2  0
 20 21  1  0
 21 22  1  0
 21 23  1  0
 23 24  1  0
 12 25  1  0
 25 26  2  0
 26 27  1  0
 27 28  2  0
 28 29  1  0
 29 30  2  0
 30 31  1  0
 31 32  2  0
 32 33  1  0
 33 34  2  0
  6  4  1  0
 23 17  2  0
 34 25  1  0
 33 28  1  0
M  END
>  <distance_score>  (134) 
0.55045

>  <ref_pdb>  (134) 
A1346a

>  <ref_mols>  (134) 
A1346a

>  <alias>  (134) 
None

>  <original SMILES>  (134) 
CC(=O)[C@@H]1C[C@]1(Cl)C(=O)NC[C@@H](NC(=O)Cc1c(C)nn(C)c1C)c1ccc2ccccc2c1

>  <inchikey>  (134) 
IPCGSPWUHYDDIL-PPJWLVRDSA-N

>  <exports>  (134) 
['/opt/xchem-fragalysis-2/maxwin/2A_HIPPO/hippo/A71EV2A_10_recipes/Recipe_1LPVPY0_poses.sdf']

>  <original ID>  (134) 
IPCGSPWUHYDDIL-PPJWLVRDSA-N

>  <energy_score>  (134) 
-22.195904

>  <tags>  (134) 
[]

>  <HIPPO ID>  (134) 
109406

>  <name>  (134) 
IPCGSPWUHYDDIL-PPJWLVRDSA-N

$$$$
IPCGSPWUHYDDIL-JQYIIUTOSA-N
     RDKit          3D

 34 37  0  0  0  0  0  0  0  0999 V2000
   12.0344   14.4204   20.6729 C   0  0  0  0  0  0  0  0  0  0  0  0
   10.6433   14.5257   20.1719 C   0  0  0  0  0  0  0  0  0  0  0  0
   10.3562   14.6419   18.9957 O   0  0  0  0  0  0  0  0  0  0  0  0
    9.6281   14.3400   21.2072 C   0  0  1  0  0  0  0  0  0  0  0  0
    9.7328   15.1422   22.4516 C   0  0  0  0  0  0  0  0  0  0  0  0
    8.5439   15.3233   21.5191 C   0  0  1  0  0  0  0  0  0  0  0  0
    8.5487   16.9383   20.7665 Cl  0  0  0  0  0  0  0  0  0  0  0  0
    7.2189   14.8050   22.0377 C   0  0  0  0  0  0  0  0  0  0  0  0
    6.8659   13.6388   21.8874 O   0  0  0  0  0  0  0  0  0  0  0  0
    6.5507   15.7508   22.7530 N   0  0  0  0  0  0  0  0  0  0  0  0
    5.2464   15.6576   23.3561 C   0  0  0  0  0  0  0  0  0  0  0  0
    4.8591   14.4588   24.2321 C   0  0  1  0  0  0  0  0  0  0  0  0
    5.9320   13.7003   24.8647 N   0  0  0  0  0  0  0  0  0  0  0  0
    6.7645   14.1373   25.8544 C   0  0  0  0  0  0  0  0  0  0  0  0
    6.8792   15.3149   26.1895 O   0  0  0  0  0  0  0  0  0  0  0  0
    7.5234   13.0638   26.6248 C   0  0  0  0  0  0  0  0  0  0  0  0
    7.7111   11.7488   25.9389 C   0  0  0  0  0  0  0  0  0  0  0  0
    6.9843   10.5444   26.1385 C   0  0  0  0  0  0  0  0  0  0  0  0
    5.8627   10.2839   27.0732 C   0  0  0  0  0  0  0  0  0  0  0  0
    7.4386    9.5568   25.3629 N   0  0  0  0  0  0  0  0  0  0  0  0
    8.4190   10.1172   24.6335 N   0  0  0  0  0  0  0  0  0  0  0  0
    9.0941    9.3452   23.6130 C   0  0  0  0  0  0  0  0  0  0  0  0
    8.6540   11.4211   24.9809 C   0  0  0  0  0  0  0  0  0  0  0  0
    9.7224   12.2286   24.3642 C   0  0  0  0  0  0  0  0  0  0  0  0
    3.6807   14.6799   25.1893 C   0  0  0  0  0  0  0  0  0  0  0  0
    3.0062   15.9002   25.3244 C   0  0  0  0  0  0  0  0  0  0  0  0
    1.8489   16.0096   26.1011 C   0  0  0  0  0  0  0  0  0  0  0  0
    1.3505   14.9060   26.7999 C   0  0  0  0  0  0  0  0  0  0  0  0
    0.1764   14.9931   27.5617 C   0  0  0  0  0  0  0  0  0  0  0  0
   -0.2897   13.8880   28.2722 C   0  0  0  0  0  0  0  0  0  0  0  0
    0.4200   12.6913   28.2438 C   0  0  0  0  0  0  0  0  0  0  0  0
    1.5847   12.5895   27.4848 C   0  0  0  0  0  0  0  0  0  0  0  0
    2.0518   13.6844   26.7419 C   0  0  0  0  0  0  0  0  0  0  0  0
    3.1956   13.5889   25.9322 C   0  0  0  0  0  0  0  0  0  0  0  0
  1  2  1  0
  2  3  2  0
  4  2  1  6
  4  5  1  0
  5  6  1  0
  6  7  1  6
  6  8  1  0
  8  9  2  0
  8 10  1  0
 10 11  1  0
 12 11  1  1
 12 13  1  0
 13 14  1  0
 14 15  2  0
 14 16  1  0
 16 17  1  0
 17 18  1  0
 18 19  1  0
 18 20  2  0
 20 21  1  0
 21 22  1  0
 21 23  1  0
 23 24  1  0
 12 25  1  0
 25 26  2  0
 26 27  1  0
 27 28  2  0
 28 29  1  0
 29 30  2  0
 30 31  1  0
 31 32  2  0
 32 33  1  0
 33 34  2  0
  6  4  1  0
 23 17  2  0
 34 25  1  0
 33 28  1  0
M  END
>  <distance_score>  (135) 
0.365541

>  <ref_pdb>  (135) 
A1346a

>  <ref_mols>  (135) 
A1346a

>  <alias>  (135) 
None

>  <original SMILES>  (135) 
CC(=O)[C@H]1C[C@]1(Cl)C(=O)NC[C@@H](NC(=O)Cc1c(C)nn(C)c1C)c1ccc2ccccc2c1

>  <inchikey>  (135) 
IPCGSPWUHYDDIL-JQYIIUTOSA-N

>  <exports>  (135) 
['/opt/xchem-fragalysis-2/maxwin/2A_HIPPO/hippo/A71EV2A_10_recipes/Recipe_1LPVPY0_poses.sdf']

>  <original ID>  (135) 
IPCGSPWUHYDDIL-JQYIIUTOSA-N

>  <energy_score>  (135) 
-59.568685

>  <tags>  (135) 
[]

>  <HIPPO ID>  (135) 
109407

>  <name>  (135) 
IPCGSPWUHYDDIL-JQYIIUTOSA-N

$$$$
IPCGSPWUHYDDIL-ZEVJAHDQSA-N
     RDKit          3D

 34 37  0  0  0  0  0  0  0  0999 V2000
   11.4199   14.8152   24.0212 C   0  0  0  0  0  0  0  0  0  0  0  0
   11.1951   15.0099   22.5613 C   0  0  0  0  0  0  0  0  0  0  0  0
   12.0844   15.4527   21.8527 O   0  0  0  0  0  0  0  0  0  0  0  0
    9.9551   14.4523   22.0037 C   0  0  2  0  0  0  0  0  0  0  0  0
    9.6417   14.5562   20.5543 C   0  0  0  0  0  0  0  0  0  0  0  0
    8.7399   15.2428   21.5431 C   0  0  2  0  0  0  0  0  0  0  0  0
    8.7985   17.0076   21.2904 Cl  0  0  0  0  0  0  0  0  0  0  0  0
    7.3971   14.7069   22.0324 C   0  0  0  0  0  0  0  0  0  0  0  0
    7.0475   13.5419   21.8725 O   0  0  0  0  0  0  0  0  0  0  0  0
    6.6937   15.6513   22.7231 N   0  0  0  0  0  0  0  0  0  0  0  0
    5.3797   15.6108   23.3222 C   0  0  0  0  0  0  0  0  0  0  0  0
    4.9231   14.4277   24.1816 C   0  0  1  0  0  0  0  0  0  0  0  0
    5.9486   13.6366   24.8462 N   0  0  0  0  0  0  0  0  0  0  0  0
    6.7430   14.0490   25.8809 C   0  0  0  0  0  0  0  0  0  0  0  0
    6.9681   15.2254   26.1575 O   0  0  0  0  0  0  0  0  0  0  0  0
    7.2978   12.9343   26.7645 C   0  0  0  0  0  0  0  0  0  0  0  0
    7.5387   11.6274   26.0783 C   0  0  0  0  0  0  0  0  0  0  0  0
    6.8379   10.4048   26.2185 C   0  0  0  0  0  0  0  0  0  0  0  0
    5.7003   10.0960   27.1164 C   0  0  0  0  0  0  0  0  0  0  0  0
    7.3284    9.4577   25.4131 N   0  0  0  0  0  0  0  0  0  0  0  0
    8.3240   10.0583   24.7381 N   0  0  0  0  0  0  0  0  0  0  0  0
    9.0351    9.3466   23.6986 C   0  0  0  0  0  0  0  0  0  0  0  0
    8.5168   11.3476   25.1444 C   0  0  0  0  0  0  0  0  0  0  0  0
    9.5560   12.2356   24.6167 C   0  0  0  0  0  0  0  0  0  0  0  0
    3.7328   14.6806   25.1183 C   0  0  0  0  0  0  0  0  0  0  0  0
    3.0913   15.9180   25.2450 C   0  0  0  0  0  0  0  0  0  0  0  0
    1.9330   16.0613   26.0169 C   0  0  0  0  0  0  0  0  0  0  0  0
    1.4006   14.9752   26.7203 C   0  0  0  0  0  0  0  0  0  0  0  0
    0.2271   15.0965   27.4796 C   0  0  0  0  0  0  0  0  0  0  0  0
   -0.2703   14.0078   28.1948 C   0  0  0  0  0  0  0  0  0  0  0  0
    0.4074   12.7929   28.1744 C   0  0  0  0  0  0  0  0  0  0  0  0
    1.5704   12.6569   27.4183 C   0  0  0  0  0  0  0  0  0  0  0  0
    2.0682   13.7354   26.6703 C   0  0  0  0  0  0  0  0  0  0  0  0
    3.2118   13.6065   25.8644 C   0  0  0  0  0  0  0  0  0  0  0  0
  1  2  1  0
  2  3  2  0
  4  2  1  6
  4  5  1  0
  5  6  1  0
  6  7  1  6
  6  8  1  0
  8  9  2  0
  8 10  1  0
 10 11  1  0
 12 11  1  1
 12 13  1  0
 13 14  1  0
 14 15  2  0
 14 16  1  0
 16 17  1  0
 17 18  1  0
 18 19  1  0
 18 20  2  0
 20 21  1  0
 21 22  1  0
 21 23  1  0
 23 24  1  0
 12 25  1  0
 25 26  2  0
 26 27  1  0
 27 28  2  0
 28 29  1  0
 29 30  2  0
 30 31  1  0
 31 32  2  0
 32 33  1  0
 33 34  2  0
  6  4  1  0
 23 17  2  0
 34 25  1  0
 33 28  1  0
M  END
>  <distance_score>  (136) 
0.385104

>  <ref_pdb>  (136) 
A1346a

>  <ref_mols>  (136) 
A1346a

>  <alias>  (136) 
None

>  <original SMILES>  (136) 
CC(=O)[C@@H]1C[C@@]1(Cl)C(=O)NC[C@@H](NC(=O)Cc1c(C)nn(C)c1C)c1ccc2ccccc2c1

>  <inchikey>  (136) 
IPCGSPWUHYDDIL-ZEVJAHDQSA-N

>  <exports>  (136) 
['/opt/xchem-fragalysis-2/maxwin/2A_HIPPO/hippo/A71EV2A_10_recipes/Recipe_1LPVPY0_poses.sdf']

>  <original ID>  (136) 
IPCGSPWUHYDDIL-ZEVJAHDQSA-N

>  <energy_score>  (136) 
-37.946097

>  <tags>  (136) 
[]

>  <HIPPO ID>  (136) 
109408

>  <name>  (136) 
IPCGSPWUHYDDIL-ZEVJAHDQSA-N

$$$$
IPCGSPWUHYDDIL-PLXFJCCSSA-N
     RDKit          3D

 34 37  0  0  0  0  0  0  0  0999 V2000
   11.5260   13.8975   23.2239 C   0  0  0  0  0  0  0  0  0  0  0  0
   10.1605   14.5065   23.1747 C   0  0  0  0  0  0  0  0  0  0  0  0
    9.3245   14.3824   24.0589 O   0  0  0  0  0  0  0  0  0  0  0  0
    9.9147   15.3286   21.9907 C   0  0  1  0  0  0  0  0  0  0  0  0
    9.5927   14.7099   20.6680 C   0  0  0  0  0  0  0  0  0  0  0  0
    8.5389   15.5097   21.3881 C   0  0  2  0  0  0  0  0  0  0  0  0
    8.3191   17.2001   20.7857 Cl  0  0  0  0  0  0  0  0  0  0  0  0
    7.3213   14.8568   22.0200 C   0  0  0  0  0  0  0  0  0  0  0  0
    7.0308   13.6764   21.8455 O   0  0  0  0  0  0  0  0  0  0  0  0
    6.6214   15.7482   22.7743 N   0  0  0  0  0  0  0  0  0  0  0  0
    5.3499   15.6384   23.4404 C   0  0  0  0  0  0  0  0  0  0  0  0
    4.9209   14.3977   24.2231 C   0  0  1  0  0  0  0  0  0  0  0  0
    5.9728   13.6171   24.8559 N   0  0  0  0  0  0  0  0  0  0  0  0
    6.7297   13.9962   25.9275 C   0  0  0  0  0  0  0  0  0  0  0  0
    6.7165   15.1297   26.4084 O   0  0  0  0  0  0  0  0  0  0  0  0
    7.5610   12.9046   26.5958 C   0  0  0  0  0  0  0  0  0  0  0  0
    7.6044   11.5533   25.9434 C   0  0  0  0  0  0  0  0  0  0  0  0
    6.7906   10.4111   26.1711 C   0  0  0  0  0  0  0  0  0  0  0  0
    5.6933   10.2522   27.1530 C   0  0  0  0  0  0  0  0  0  0  0  0
    7.1446    9.3747   25.3974 N   0  0  0  0  0  0  0  0  0  0  0  0
    8.1788    9.8319   24.6746 N   0  0  0  0  0  0  0  0  0  0  0  0
    8.8407    9.0181   23.6776 C   0  0  0  0  0  0  0  0  0  0  0  0
    8.5227   11.0995   25.0225 C   0  0  0  0  0  0  0  0  0  0  0  0
    9.7019   11.7248   24.4423 C   0  0  0  0  0  0  0  0  0  0  0  0
    3.7186   14.6156   25.1580 C   0  0  0  0  0  0  0  0  0  0  0  0
    3.0328   15.8340   25.2661 C   0  0  0  0  0  0  0  0  0  0  0  0
    1.8692   15.9526   26.0321 C   0  0  0  0  0  0  0  0  0  0  0  0
    1.3735   14.8598   26.7485 C   0  0  0  0  0  0  0  0  0  0  0  0
    0.1971   14.9565   27.5062 C   0  0  0  0  0  0  0  0  0  0  0  0
   -0.2646   13.8639   28.2383 C   0  0  0  0  0  0  0  0  0  0  0  0
    0.4516   12.6706   28.2354 C   0  0  0  0  0  0  0  0  0  0  0  0
    1.6186   12.5597   27.4806 C   0  0  0  0  0  0  0  0  0  0  0  0
    2.0819   13.6411   26.7157 C   0  0  0  0  0  0  0  0  0  0  0  0
    3.2312   13.5363   25.9132 C   0  0  0  0  0  0  0  0  0  0  0  0
  1  2  1  0
  2  3  2  0
  4  2  1  1
  4  5  1  0
  5  6  1  0
  6  7  1  6
  6  8  1  0
  8  9  2  0
  8 10  1  0
 10 11  1  0
 12 11  1  1
 12 13  1  0
 13 14  1  0
 14 15  2  0
 14 16  1  0
 16 17  1  0
 17 18  1  0
 18 19  1  0
 18 20  2  0
 20 21  1  0
 21 22  1  0
 21 23  1  0
 23 24  1  0
 12 25  1  0
 25 26  2  0
 26 27  1  0
 27 28  2  0
 28 29  1  0
 29 30  2  0
 30 31  1  0
 31 32  2  0
 32 33  1  0
 33 34  2  0
  6  4  1  0
 23 17  2  0
 34 25  1  0
 33 28  1  0
M  END
>  <distance_score>  (137) 
0.423947

>  <ref_pdb>  (137) 
A1346a

>  <ref_mols>  (137) 
A1346a

>  <alias>  (137) 
None

>  <original SMILES>  (137) 
CC(=O)[C@H]1C[C@@]1(Cl)C(=O)NC[C@@H](NC(=O)Cc1c(C)nn(C)c1C)c1ccc2ccccc2c1

>  <inchikey>  (137) 
IPCGSPWUHYDDIL-PLXFJCCSSA-N

>  <exports>  (137) 
['/opt/xchem-fragalysis-2/maxwin/2A_HIPPO/hippo/A71EV2A_10_recipes/Recipe_1LPVPY0_poses.sdf']

>  <original ID>  (137) 
IPCGSPWUHYDDIL-PLXFJCCSSA-N

>  <energy_score>  (137) 
-51.392905

>  <tags>  (137) 
[]

>  <HIPPO ID>  (137) 
109409

>  <name>  (137) 
IPCGSPWUHYDDIL-PLXFJCCSSA-N

$$$$
NZVJBVJDSSUPIL-LURJTMIESA-N
     RDKit          3D

 18 18  0  0  0  0  0  0  0  0999 V2000
    9.1629    9.2483   23.1555 C   0  0  0  0  0  0  0  0  0  0  0  0
    8.8414   10.5991   23.4697 O   0  0  0  0  0  0  0  0  0  0  0  0
    7.7986   10.7379   24.3088 C   0  0  0  0  0  0  0  0  0  0  0  0
    7.0094    9.7877   24.9603 C   0  0  0  0  0  0  0  0  0  0  0  0
    6.1129   10.5021   25.7178 C   0  0  0  0  0  0  0  0  0  0  0  0
    5.1373    9.9830   26.5607 N   0  0  0  0  0  0  0  0  0  0  0  0
    4.8837   10.5516   27.7922 C   0  0  0  0  0  0  0  0  0  0  0  0
    5.4814   11.5216   28.2528 O   0  0  0  0  0  0  0  0  0  0  0  0
    3.8241    9.8373   28.6114 C   0  0  0  0  0  0  0  0  0  0  0  0
    2.6397   10.7520   28.9403 C   0  0  2  0  0  0  0  0  0  0  0  0
    3.0203   11.9690   29.7918 C   0  0  0  0  0  0  0  0  0  0  0  0
    1.5431    9.9817   29.6547 C   0  0  0  0  0  0  0  0  0  0  0  0
    1.8822    9.6659   30.9214 F   0  0  0  0  0  0  0  0  0  0  0  0
    1.2396    8.8338   29.0113 F   0  0  0  0  0  0  0  0  0  0  0  0
    0.4134   10.7218   29.7000 F   0  0  0  0  0  0  0  0  0  0  0  0
    6.3777   11.8263   25.4253 N   0  0  0  0  0  0  0  0  0  0  0  0
    5.6112   13.0002   25.7698 C   0  0  0  0  0  0  0  0  0  0  0  0
    7.4375   11.9852   24.5908 N   0  0  0  0  0  0  0  0  0  0  0  0
  1  2  1  0
  2  3  1  0
  3  4  1  0
  4  5  2  0
  5  6  1  0
  6  7  1  0
  7  8  2  0
  7  9  1  0
  9 10  1  0
 10 11  1  1
 10 12  1  0
 12 13  1  0
 12 14  1  0
 12 15  1  0
  5 16  1  0
 16 17  1  0
 16 18  1  0
 18  3  2  0
M  END
>  <distance_score>  (138) 
0.428639

>  <ref_pdb>  (138) 
A1445a

>  <ref_mols>  (138) 
A1445a

>  <alias>  (138) 
None

>  <original SMILES>  (138) 
COc1cc(NC(=O)C[C@H](C)C(F)(F)F)n(C)n1

>  <inchikey>  (138) 
NZVJBVJDSSUPIL-LURJTMIESA-N

>  <exports>  (138) 
['/opt/xchem-fragalysis-2/maxwin/2A_HIPPO/hippo/A71EV2A_10_recipes/Recipe_1LPUPHX_poses.sdf', '/opt/xchem-fragalysis-2/maxwin/2A_HIPPO/hippo/A71EV2A_10_recipes/Recipe_1LPVPY0_poses.sdf']

>  <original ID>  (138) 
NZVJBVJDSSUPIL-LURJTMIESA-N

>  <energy_score>  (138) 
-20.159401

>  <tags>  (138) 
['Syndirella scaffold']

>  <HIPPO ID>  (138) 
109577

>  <name>  (138) 
NZVJBVJDSSUPIL-LURJTMIESA-N

$$$$
NZVJBVJDSSUPIL-ZCFIWIBFSA-N
     RDKit          3D

 18 18  0  0  0  0  0  0  0  0999 V2000
    9.1742    9.2503   23.1545 C   0  0  0  0  0  0  0  0  0  0  0  0
    8.8899   10.6044   23.4864 O   0  0  0  0  0  0  0  0  0  0  0  0
    7.8426   10.7639   24.3161 C   0  0  0  0  0  0  0  0  0  0  0  0
    6.9980    9.8311   24.9217 C   0  0  0  0  0  0  0  0  0  0  0  0
    6.1005   10.5653   25.6560 C   0  0  0  0  0  0  0  0  0  0  0  0
    5.0259   10.0916   26.3887 N   0  0  0  0  0  0  0  0  0  0  0  0
    4.6981   10.6234   27.6218 C   0  0  0  0  0  0  0  0  0  0  0  0
    5.4036   11.3984   28.2581 O   0  0  0  0  0  0  0  0  0  0  0  0
    3.3426   10.1460   28.1053 C   0  0  0  0  0  0  0  0  0  0  0  0
    2.9951   10.4971   29.5587 C   0  0  1  0  0  0  0  0  0  0  0  0
    2.9527   12.0049   29.8272 C   0  0  0  0  0  0  0  0  0  0  0  0
    1.6294    9.9059   29.8804 C   0  0  0  0  0  0  0  0  0  0  0  0
    0.6611   10.4806   29.1319 F   0  0  0  0  0  0  0  0  0  0  0  0
    1.5945    8.5778   29.6297 F   0  0  0  0  0  0  0  0  0  0  0  0
    1.3103   10.0805   31.1797 F   0  0  0  0  0  0  0  0  0  0  0  0
    6.4458   11.8831   25.4316 N   0  0  0  0  0  0  0  0  0  0  0  0
    5.7222   13.0772   25.7995 C   0  0  0  0  0  0  0  0  0  0  0  0
    7.5309   12.0174   24.6284 N   0  0  0  0  0  0  0  0  0  0  0  0
  1  2  1  0
  2  3  1  0
  3  4  1  0
  4  5  2  0
  5  6  1  0
  6  7  1  0
  7  8  2  0
  7  9  1  0
  9 10  1  0
 10 11  1  6
 10 12  1  0
 12 13  1  0
 12 14  1  0
 12 15  1  0
  5 16  1  0
 16 17  1  0
 16 18  1  0
 18  3  2  0
M  END
>  <distance_score>  (139) 
0.237614

>  <ref_pdb>  (139) 
A1445a

>  <ref_mols>  (139) 
A1445a

>  <alias>  (139) 
None

>  <original SMILES>  (139) 
COc1cc(NC(=O)C[C@@H](C)C(F)(F)F)n(C)n1

>  <inchikey>  (139) 
NZVJBVJDSSUPIL-ZCFIWIBFSA-N

>  <exports>  (139) 
['/opt/xchem-fragalysis-2/maxwin/2A_HIPPO/hippo/A71EV2A_10_recipes/Recipe_1LPUPHX_poses.sdf', '/opt/xchem-fragalysis-2/maxwin/2A_HIPPO/hippo/A71EV2A_10_recipes/Recipe_1LPVPY0_poses.sdf']

>  <original ID>  (139) 
NZVJBVJDSSUPIL-ZCFIWIBFSA-N

>  <energy_score>  (139) 
-25.019429

>  <tags>  (139) 
['Syndirella scaffold']

>  <HIPPO ID>  (139) 
109578

>  <name>  (139) 
NZVJBVJDSSUPIL-ZCFIWIBFSA-N

$$$$
PWTFVVAIGPBUKA-YFKPBYRVSA-N
     RDKit          3D

 20 20  0  0  0  0  0  0  0  0999 V2000
    9.1280    9.3010   23.1793 C   0  0  0  0  0  0  0  0  0  0  0  0
    8.8119   10.6388   23.5553 O   0  0  0  0  0  0  0  0  0  0  0  0
    7.7662   10.7431   24.3980 C   0  0  0  0  0  0  0  0  0  0  0  0
    6.9551    9.7673   24.9790 C   0  0  0  0  0  0  0  0  0  0  0  0
    6.0334   10.4420   25.7422 C   0  0  0  0  0  0  0  0  0  0  0  0
    4.9783    9.8906   26.4589 N   0  0  0  0  0  0  0  0  0  0  0  0
    4.5940   10.3639   27.6994 C   0  0  0  0  0  0  0  0  0  0  0  0
    5.2419   11.1922   28.3400 O   0  0  0  0  0  0  0  0  0  0  0  0
    3.2594    9.8399   28.1991 C   0  0  2  0  0  0  0  0  0  0  0  0
    2.8625   10.5031   29.5190 C   0  0  0  0  0  0  0  0  0  0  0  0
    1.3854   10.3404   29.7063 C   0  0  0  0  0  0  0  0  0  0  0  0
    0.5271   10.9160   29.0601 O   0  0  0  0  0  0  0  0  0  0  0  0
    1.0672    9.4019   30.6083 O   0  0  0  0  0  0  0  0  0  0  0  0
    3.2562    8.3400   28.3601 C   0  0  0  0  0  0  0  0  0  0  0  0
    3.4986    7.6988   27.2156 F   0  0  0  0  0  0  0  0  0  0  0  0
    2.0393    7.8933   28.7568 F   0  0  0  0  0  0  0  0  0  0  0  0
    4.1586    7.9308   29.2755 F   0  0  0  0  0  0  0  0  0  0  0  0
    6.3402   11.7774   25.5624 N   0  0  0  0  0  0  0  0  0  0  0  0
    5.5864   12.9389   25.9705 C   0  0  0  0  0  0  0  0  0  0  0  0
    7.4240   11.9733   24.7654 N   0  0  0  0  0  0  0  0  0  0  0  0
  1  2  1  0
  2  3  1  0
  3  4  1  0
  4  5  2  0
  5  6  1  0
  6  7  1  0
  7  8  2  0
  7  9  1  0
  9 10  1  1
 10 11  1  0
 11 12  2  0
 11 13  1  0
  9 14  1  0
 14 15  1  0
 14 16  1  0
 14 17  1  0
  5 18  1  0
 18 19  1  0
 18 20  1  0
 20  3  2  0
M  END
>  <distance_score>  (140) 
0.442348

>  <ref_pdb>  (140) 
A1445a

>  <ref_mols>  (140) 
A1445a

>  <alias>  (140) 
None

>  <original SMILES>  (140) 
COc1cc(NC(=O)[C@H](CC(=O)O)C(F)(F)F)n(C)n1

>  <inchikey>  (140) 
PWTFVVAIGPBUKA-YFKPBYRVSA-N

>  <exports>  (140) 
['/opt/xchem-fragalysis-2/maxwin/2A_HIPPO/hippo/A71EV2A_10_recipes/Recipe_1LPUPHX_poses.sdf', '/opt/xchem-fragalysis-2/maxwin/2A_HIPPO/hippo/A71EV2A_10_recipes/Recipe_1LPVPY0_poses.sdf']

>  <original ID>  (140) 
PWTFVVAIGPBUKA-YFKPBYRVSA-N

>  <energy_score>  (140) 
-34.313326

>  <tags>  (140) 
[]

>  <HIPPO ID>  (140) 
109621

>  <name>  (140) 
PWTFVVAIGPBUKA-YFKPBYRVSA-N

$$$$
PWTFVVAIGPBUKA-RXMQYKEDSA-N
     RDKit          3D

 20 20  0  0  0  0  0  0  0  0999 V2000
    9.1143    9.2484   23.1651 C   0  0  0  0  0  0  0  0  0  0  0  0
    8.8302   10.5995   23.5108 O   0  0  0  0  0  0  0  0  0  0  0  0
    7.8053   10.7485   24.3710 C   0  0  0  0  0  0  0  0  0  0  0  0
    6.9931    9.8095   25.0104 C   0  0  0  0  0  0  0  0  0  0  0  0
    6.1355   10.5330   25.8047 C   0  0  0  0  0  0  0  0  0  0  0  0
    5.1354   10.0282   26.6233 N   0  0  0  0  0  0  0  0  0  0  0  0
    4.7517   10.6377   27.8056 C   0  0  0  0  0  0  0  0  0  0  0  0
    5.4234   11.4809   28.3958 O   0  0  0  0  0  0  0  0  0  0  0  0
    3.3995   10.1968   28.3177 C   0  0  1  0  0  0  0  0  0  0  0  0
    3.2542   10.4273   29.8193 C   0  0  0  0  0  0  0  0  0  0  0  0
    1.8811   10.0953   30.3306 C   0  0  0  0  0  0  0  0  0  0  0  0
    1.5676    9.0821   30.9275 O   0  0  0  0  0  0  0  0  0  0  0  0
    0.9744   11.0491   30.0699 O   0  0  0  0  0  0  0  0  0  0  0  0
    2.4117   11.0324   27.5458 C   0  0  0  0  0  0  0  0  0  0  0  0
    1.1681   10.5032   27.6054 F   0  0  0  0  0  0  0  0  0  0  0  0
    2.3476   12.3056   27.9795 F   0  0  0  0  0  0  0  0  0  0  0  0
    2.7294   11.1013   26.2460 F   0  0  0  0  0  0  0  0  0  0  0  0
    6.4360   11.8547   25.5351 N   0  0  0  0  0  0  0  0  0  0  0  0
    5.6972   13.0432   25.8909 C   0  0  0  0  0  0  0  0  0  0  0  0
    7.5001   11.9977   24.7040 N   0  0  0  0  0  0  0  0  0  0  0  0
  1  2  1  0
  2  3  1  0
  3  4  1  0
  4  5  2  0
  5  6  1  0
  6  7  1  0
  7  8  2  0
  7  9  1  0
  9 10  1  1
 10 11  1  0
 11 12  2  0
 11 13  1  0
  9 14  1  0
 14 15  1  0
 14 16  1  0
 14 17  1  0
  5 18  1  0
 18 19  1  0
 18 20  1  0
 20  3  2  0
M  END
>  <distance_score>  (141) 
0.435044

>  <ref_pdb>  (141) 
A1445a

>  <ref_mols>  (141) 
A1445a

>  <alias>  (141) 
None

>  <original SMILES>  (141) 
COc1cc(NC(=O)[C@@H](CC(=O)O)C(F)(F)F)n(C)n1

>  <inchikey>  (141) 
PWTFVVAIGPBUKA-RXMQYKEDSA-N

>  <exports>  (141) 
['/opt/xchem-fragalysis-2/maxwin/2A_HIPPO/hippo/A71EV2A_10_recipes/Recipe_1LPUPHX_poses.sdf', '/opt/xchem-fragalysis-2/maxwin/2A_HIPPO/hippo/A71EV2A_10_recipes/Recipe_1LPVPY0_poses.sdf']

>  <original ID>  (141) 
PWTFVVAIGPBUKA-RXMQYKEDSA-N

>  <energy_score>  (141) 
-29.454289

>  <tags>  (141) 
[]

>  <HIPPO ID>  (141) 
109622

>  <name>  (141) 
PWTFVVAIGPBUKA-RXMQYKEDSA-N

$$$$
CSKHNYXMPHNKNH-RXMQYKEDSA-N
     RDKit          3D

 20 20  0  0  0  0  0  0  0  0999 V2000
    9.1848    9.2465   23.1391 C   0  0  0  0  0  0  0  0  0  0  0  0
    8.8598   10.5947   23.4588 O   0  0  0  0  0  0  0  0  0  0  0  0
    7.8143   10.7263   24.2951 C   0  0  0  0  0  0  0  0  0  0  0  0
    7.0353    9.7695   24.9474 C   0  0  0  0  0  0  0  0  0  0  0  0
    6.1320   10.4754   25.7045 C   0  0  0  0  0  0  0  0  0  0  0  0
    5.1719    9.9401   26.5543 N   0  0  0  0  0  0  0  0  0  0  0  0
    4.8892   10.5215   27.7708 C   0  0  0  0  0  0  0  0  0  0  0  0
    5.4274   11.5346   28.2100 O   0  0  0  0  0  0  0  0  0  0  0  0
    3.8609    9.7784   28.6015 C   0  0  0  0  0  0  0  0  0  0  0  0
    2.6808   10.6938   28.8907 C   0  0  2  0  0  0  0  0  0  0  0  0
    3.0854   11.8887   29.6955 C   0  0  0  0  0  0  0  0  0  0  0  0
    3.6324   11.8974   30.7843 O   0  0  0  0  0  0  0  0  0  0  0  0
    2.8095   13.0421   29.0555 O   0  0  0  0  0  0  0  0  0  0  0  0
    1.5857   10.0248   29.6653 C   0  0  0  0  0  0  0  0  0  0  0  0
    1.2106    8.8750   29.0510 F   0  0  0  0  0  0  0  0  0  0  0  0
    1.9218    9.7022   30.9277 F   0  0  0  0  0  0  0  0  0  0  0  0
    0.4877   10.8114   29.7102 F   0  0  0  0  0  0  0  0  0  0  0  0
    6.3786   11.8021   25.4048 N   0  0  0  0  0  0  0  0  0  0  0  0
    5.5943   12.9690   25.7340 C   0  0  0  0  0  0  0  0  0  0  0  0
    7.4411   11.9698   24.5755 N   0  0  0  0  0  0  0  0  0  0  0  0
  1  2  1  0
  2  3  1  0
  3  4  1  0
  4  5  2  0
  5  6  1  0
  6  7  1  0
  7  8  2  0
  7  9  1  0
 10  9  1  1
 10 11  1  0
 11 12  2  0
 11 13  1  0
 10 14  1  0
 14 15  1  0
 14 16  1  0
 14 17  1  0
  5 18  1  0
 18 19  1  0
 18 20  1  0
 20  3  2  0
M  END
>  <distance_score>  (142) 
0.43033

>  <ref_pdb>  (142) 
A1445a

>  <ref_mols>  (142) 
A1445a

>  <alias>  (142) 
None

>  <original SMILES>  (142) 
COc1cc(NC(=O)C[C@H](C(=O)O)C(F)(F)F)n(C)n1

>  <inchikey>  (142) 
CSKHNYXMPHNKNH-RXMQYKEDSA-N

>  <exports>  (142) 
['/opt/xchem-fragalysis-2/maxwin/2A_HIPPO/hippo/A71EV2A_10_recipes/Recipe_1LPUPHX_poses.sdf', '/opt/xchem-fragalysis-2/maxwin/2A_HIPPO/hippo/A71EV2A_10_recipes/Recipe_1LPVPY0_poses.sdf']

>  <original ID>  (142) 
CSKHNYXMPHNKNH-RXMQYKEDSA-N

>  <energy_score>  (142) 
-38.558461

>  <tags>  (142) 
[]

>  <HIPPO ID>  (142) 
109623

>  <name>  (142) 
CSKHNYXMPHNKNH-RXMQYKEDSA-N

$$$$
CSKHNYXMPHNKNH-YFKPBYRVSA-N
     RDKit          3D

 20 20  0  0  0  0  0  0  0  0999 V2000
    9.1937    9.2132   23.1364 C   0  0  0  0  0  0  0  0  0  0  0  0
    8.9261   10.5687   23.4695 O   0  0  0  0  0  0  0  0  0  0  0  0
    7.8694   10.7389   24.2848 C   0  0  0  0  0  0  0  0  0  0  0  0
    7.0202    9.8124   24.8914 C   0  0  0  0  0  0  0  0  0  0  0  0
    6.1122   10.5536   25.6043 C   0  0  0  0  0  0  0  0  0  0  0  0
    5.0320   10.0826   26.3301 N   0  0  0  0  0  0  0  0  0  0  0  0
    4.6957   10.6257   27.5535 C   0  0  0  0  0  0  0  0  0  0  0  0
    5.3812   11.4354   28.1678 O   0  0  0  0  0  0  0  0  0  0  0  0
    3.3602   10.1242   28.0611 C   0  0  0  0  0  0  0  0  0  0  0  0
    3.1198   10.3909   29.5426 C   0  0  1  0  0  0  0  0  0  0  0  0
    3.2075   11.8433   29.8816 C   0  0  0  0  0  0  0  0  0  0  0  0
    2.4736   12.7329   29.4903 O   0  0  0  0  0  0  0  0  0  0  0  0
    4.2566   12.1248   30.6782 O   0  0  0  0  0  0  0  0  0  0  0  0
    1.7350    9.9509   29.9304 C   0  0  0  0  0  0  0  0  0  0  0  0
    1.4918   10.1440   31.2430 F   0  0  0  0  0  0  0  0  0  0  0  0
    0.7681   10.5678   29.2201 F   0  0  0  0  0  0  0  0  0  0  0  0
    1.5907    8.6205   29.6954 F   0  0  0  0  0  0  0  0  0  0  0  0
    6.4586   11.8704   25.3706 N   0  0  0  0  0  0  0  0  0  0  0  0
    5.7298   13.0690   25.7159 C   0  0  0  0  0  0  0  0  0  0  0  0
    7.5564   11.9952   24.5806 N   0  0  0  0  0  0  0  0  0  0  0  0
  1  2  1  0
  2  3  1  0
  3  4  1  0
  4  5  2  0
  5  6  1  0
  6  7  1  0
  7  8  2  0
  7  9  1  0
 10  9  1  6
 10 11  1  0
 11 12  2  0
 11 13  1  0
 10 14  1  0
 14 15  1  0
 14 16  1  0
 14 17  1  0
  5 18  1  0
 18 19  1  0
 18 20  1  0
 20  3  2  0
M  END
>  <distance_score>  (143) 
0.216959

>  <ref_pdb>  (143) 
A1445a

>  <ref_mols>  (143) 
A1445a

>  <alias>  (143) 
None

>  <original SMILES>  (143) 
COc1cc(NC(=O)C[C@@H](C(=O)O)C(F)(F)F)n(C)n1

>  <inchikey>  (143) 
CSKHNYXMPHNKNH-YFKPBYRVSA-N

>  <exports>  (143) 
['/opt/xchem-fragalysis-2/maxwin/2A_HIPPO/hippo/A71EV2A_10_recipes/Recipe_1LPUPHX_poses.sdf', '/opt/xchem-fragalysis-2/maxwin/2A_HIPPO/hippo/A71EV2A_10_recipes/Recipe_1LPVPY0_poses.sdf']

>  <original ID>  (143) 
CSKHNYXMPHNKNH-YFKPBYRVSA-N

>  <energy_score>  (143) 
-31.167915

>  <tags>  (143) 
[]

>  <HIPPO ID>  (143) 
109624

>  <name>  (143) 
CSKHNYXMPHNKNH-YFKPBYRVSA-N

$$$$
VINVRWFILPAKSR-ZETCQYMHSA-N
     RDKit          3D

 14 14  0  0  0  0  0  0  0  0999 V2000
    6.2471   11.7392   25.7650 C   0  0  0  0  0  0  0  0  0  0  0  0
    7.5154   11.3540   25.2545 O   0  0  0  0  0  0  0  0  0  0  0  0
    8.3094   12.4782   24.9041 C   0  0  0  0  0  0  0  0  0  0  0  0
    7.9634   13.2506   23.6054 C   0  0  0  0  0  0  0  0  0  0  0  0
    7.0779   12.8505   22.8458 O   0  0  0  0  0  0  0  0  0  0  0  0
    8.7023   14.4117   23.3535 N   0  0  0  0  0  0  0  0  0  0  0  0
    9.8662   14.8143   24.1444 C   0  0  0  0  0  0  0  0  0  0  0  0
   11.1511   14.4695   23.4033 C   0  0  0  0  0  0  0  0  0  0  0  0
   11.1498   15.1755   22.0512 C   0  0  0  0  0  0  0  0  0  0  0  0
    9.9301   14.7105   21.2585 C   0  0  2  0  0  0  0  0  0  0  0  0
   10.0838   15.1209   19.8107 C   0  0  0  0  0  0  0  0  0  0  0  0
    9.5950   16.3169   19.4134 N   0  0  0  0  0  0  0  0  0  0  0  0
   10.7347   14.4332   19.0259 O   0  0  0  0  0  0  0  0  0  0  0  0
    8.6380   15.0389   22.0070 C   0  0  0  0  0  0  0  0  0  0  0  0
  1  2  1  0
  2  3  1  0
  3  4  1  0
  4  5  2  0
  4  6  1  0
  6  7  1  0
  7  8  1  0
  8  9  1  0
  9 10  1  0
 10 11  1  6
 11 12  1  0
 11 13  2  0
 10 14  1  0
 14  6  1  0
M  END
>  <distance_score>  (144) 
0.267752

>  <ref_pdb>  (144) 
A0926a

>  <ref_mols>  (144) 
A0926a

>  <alias>  (144) 
None

>  <original SMILES>  (144) 
COCC(=O)N1CCC[C@H](C(N)=O)C1

>  <inchikey>  (144) 
VINVRWFILPAKSR-ZETCQYMHSA-N

>  <exports>  (144) 
['/opt/xchem-fragalysis-2/maxwin/2A_HIPPO/hippo/A71EV2A_10_recipes/Recipe_1LPUPHX_poses.sdf', '/opt/xchem-fragalysis-2/maxwin/2A_HIPPO/hippo/A71EV2A_10_recipes/Recipe_1LPVPY0_poses.sdf']

>  <original ID>  (144) 
VINVRWFILPAKSR-ZETCQYMHSA-N

>  <energy_score>  (144) 
-32.638634

>  <tags>  (144) 
['Syndirella scaffold']

>  <HIPPO ID>  (144) 
110208

>  <name>  (144) 
VINVRWFILPAKSR-ZETCQYMHSA-N

$$$$
VINVRWFILPAKSR-SSDOTTSWSA-N
     RDKit          3D

 14 14  0  0  0  0  0  0  0  0999 V2000
    6.2131   11.7365   25.8567 C   0  0  0  0  0  0  0  0  0  0  0  0
    7.4968   11.3128   25.4205 O   0  0  0  0  0  0  0  0  0  0  0  0
    8.3144   12.4052   25.0259 C   0  0  0  0  0  0  0  0  0  0  0  0
    8.0038   13.0904   23.6779 C   0  0  0  0  0  0  0  0  0  0  0  0
    7.0674   12.7173   22.9670 O   0  0  0  0  0  0  0  0  0  0  0  0
    8.8459   14.1286   23.2897 N   0  0  0  0  0  0  0  0  0  0  0  0
    9.9898   14.6092   24.0512 C   0  0  0  0  0  0  0  0  0  0  0  0
   11.2544   14.3167   23.2692 C   0  0  0  0  0  0  0  0  0  0  0  0
   11.2539   14.9923   21.8976 C   0  0  0  0  0  0  0  0  0  0  0  0
    9.8804   15.5277   21.4767 C   0  0  1  0  0  0  0  0  0  0  0  0
    9.8048   15.8257   19.9898 C   0  0  0  0  0  0  0  0  0  0  0  0
   10.2731   14.8878   19.1259 N   0  0  0  0  0  0  0  0  0  0  0  0
    9.3234   16.8773   19.5800 O   0  0  0  0  0  0  0  0  0  0  0  0
    8.7274   14.6261   21.9116 C   0  0  0  0  0  0  0  0  0  0  0  0
  1  2  1  0
  2  3  1  0
  3  4  1  0
  4  5  2  0
  4  6  1  0
  6  7  1  0
  7  8  1  0
  8  9  1  0
  9 10  1  0
 10 11  1  6
 11 12  1  0
 11 13  2  0
 10 14  1  0
 14  6  1  0
M  END
>  <distance_score>  (145) 
0.430856

>  <ref_pdb>  (145) 
A0926a

>  <ref_mols>  (145) 
A0926a

>  <alias>  (145) 
None

>  <original SMILES>  (145) 
COCC(=O)N1CCC[C@@H](C(N)=O)C1

>  <inchikey>  (145) 
VINVRWFILPAKSR-SSDOTTSWSA-N

>  <exports>  (145) 
['/opt/xchem-fragalysis-2/maxwin/2A_HIPPO/hippo/A71EV2A_10_recipes/Recipe_1LPUPHX_poses.sdf', '/opt/xchem-fragalysis-2/maxwin/2A_HIPPO/hippo/A71EV2A_10_recipes/Recipe_1LPVPY0_poses.sdf']

>  <original ID>  (145) 
VINVRWFILPAKSR-SSDOTTSWSA-N

>  <energy_score>  (145) 
-24.187421

>  <tags>  (145) 
['Syndirella scaffold']

>  <HIPPO ID>  (145) 
110209

>  <name>  (145) 
VINVRWFILPAKSR-SSDOTTSWSA-N

$$$$
UXXYHPYLHNCZEZ-HTQZYQBOSA-N
     RDKit          3D

 15 16  0  0  0  0  0  0  0  0999 V2000
    6.1791   11.6502   25.9085 C   0  0  0  0  0  0  0  0  0  0  0  0
    7.4878   11.3202   25.4658 O   0  0  0  0  0  0  0  0  0  0  0  0
    8.2431   12.4774   25.1404 C   0  0  0  0  0  0  0  0  0  0  0  0
    7.8801   13.2308   23.8421 C   0  0  0  0  0  0  0  0  0  0  0  0
    7.0579   12.7727   23.0452 O   0  0  0  0  0  0  0  0  0  0  0  0
    8.5338   14.4542   23.6278 N   0  0  0  0  0  0  0  0  0  0  0  0
    9.7787   14.8106   24.2951 C   0  0  0  0  0  0  0  0  0  0  0  0
   10.9536   14.1787   23.5641 C   0  0  0  0  0  0  0  0  0  0  0  0
   10.9012   14.3926   22.0560 C   0  0  2  0  0  0  0  0  0  0  0  0
   11.4717   15.6972   21.5476 C   0  0  0  0  0  0  0  0  0  0  0  0
   10.9686   15.7172   20.2142 N   0  0  0  0  0  0  0  0  0  0  0  0
    9.7298   15.1642   20.1452 C   0  0  0  0  0  0  0  0  0  0  0  0
    8.9866   15.3279   19.2038 O   0  0  0  0  0  0  0  0  0  0  0  0
    9.4899   14.4039   21.4195 C   0  0  2  0  0  0  0  0  0  0  0  0
    8.4235   15.0403   22.2880 C   0  0  0  0  0  0  0  0  0  0  0  0
  1  2  1  0
  2  3  1  0
  3  4  1  0
  4  5  2  0
  4  6  1  0
  6  7  1  0
  7  8  1  0
  9  8  1  1
  9 10  1  0
 10 11  1  0
 11 12  1  0
 12 13  2  0
 12 14  1  0
 14 15  1  1
 15  6  1  0
 14  9  1  0
M  END
>  <distance_score>  (146) 
0.777324

>  <ref_pdb>  (146) 
A0926a

>  <ref_mols>  (146) 
A0926a

>  <alias>  (146) 
None

>  <original SMILES>  (146) 
COCC(=O)N1CC[C@@H]2CNC(=O)[C@@H]2C1

>  <inchikey>  (146) 
UXXYHPYLHNCZEZ-HTQZYQBOSA-N

>  <exports>  (146) 
['/opt/xchem-fragalysis-2/maxwin/2A_HIPPO/hippo/A71EV2A_10_recipes/Recipe_1LPVPY0_poses.sdf']

>  <original ID>  (146) 
UXXYHPYLHNCZEZ-HTQZYQBOSA-N

>  <energy_score>  (146) 
-30.657603

>  <tags>  (146) 
[]

>  <HIPPO ID>  (146) 
110356

>  <name>  (146) 
UXXYHPYLHNCZEZ-HTQZYQBOSA-N

$$$$
UXXYHPYLHNCZEZ-JGVFFNPUSA-N
     RDKit          3D

 15 16  0  0  0  0  0  0  0  0999 V2000
    6.2689   11.7264   25.7938 C   0  0  0  0  0  0  0  0  0  0  0  0
    7.4992   11.2698   25.2481 O   0  0  0  0  0  0  0  0  0  0  0  0
    8.3509   12.3456   24.8832 C   0  0  0  0  0  0  0  0  0  0  0  0
    7.9536   13.2219   23.6691 C   0  0  0  0  0  0  0  0  0  0  0  0
    7.0540   12.8733   22.9021 O   0  0  0  0  0  0  0  0  0  0  0  0
    8.6630   14.4212   23.5140 N   0  0  0  0  0  0  0  0  0  0  0  0
   10.0020   14.6058   24.0787 C   0  0  0  0  0  0  0  0  0  0  0  0
   11.0690   14.2164   23.0473 C   0  0  0  0  0  0  0  0  0  0  0  0
   10.8527   15.0604   21.8056 C   0  0  1  0  0  0  0  0  0  0  0  0
   11.6374   14.7720   20.5363 C   0  0  0  0  0  0  0  0  0  0  0  0
   10.8161   15.3192   19.4899 N   0  0  0  0  0  0  0  0  0  0  0  0
    9.6257   15.7586   20.0484 C   0  0  0  0  0  0  0  0  0  0  0  0
    9.0041   16.7303   19.6789 O   0  0  0  0  0  0  0  0  0  0  0  0
    9.4290   14.9150   21.2741 C   0  0  2  0  0  0  0  0  0  0  0  0
    8.3963   15.2589   22.3153 C   0  0  0  0  0  0  0  0  0  0  0  0
  1  2  1  0
  2  3  1  0
  3  4  1  0
  4  5  2  0
  4  6  1  0
  6  7  1  0
  7  8  1  0
  9  8  1  1
  9 10  1  0
 10 11  1  0
 11 12  1  0
 12 13  2  0
 12 14  1  0
 14 15  1  1
 15  6  1  0
 14  9  1  0
M  END
>  <distance_score>  (147) 
0.546103

>  <ref_pdb>  (147) 
A0926a

>  <ref_mols>  (147) 
A0926a

>  <alias>  (147) 
None

>  <original SMILES>  (147) 
COCC(=O)N1CC[C@H]2CNC(=O)[C@@H]2C1

>  <inchikey>  (147) 
UXXYHPYLHNCZEZ-JGVFFNPUSA-N

>  <exports>  (147) 
['/opt/xchem-fragalysis-2/maxwin/2A_HIPPO/hippo/A71EV2A_10_recipes/Recipe_1LPVPY0_poses.sdf']

>  <original ID>  (147) 
UXXYHPYLHNCZEZ-JGVFFNPUSA-N

>  <energy_score>  (147) 
-26.899007

>  <tags>  (147) 
[]

>  <HIPPO ID>  (147) 
110357

>  <name>  (147) 
UXXYHPYLHNCZEZ-JGVFFNPUSA-N

$$$$
UXXYHPYLHNCZEZ-YUMQZZPRSA-N
     RDKit          3D

 15 16  0  0  0  0  0  0  0  0999 V2000
    6.2787   11.7920   25.8178 C   0  0  0  0  0  0  0  0  0  0  0  0
    7.5400   11.3380   25.3480 O   0  0  0  0  0  0  0  0  0  0  0  0
    8.3726   12.4059   24.9176 C   0  0  0  0  0  0  0  0  0  0  0  0
    8.0098   13.1333   23.6028 C   0  0  0  0  0  0  0  0  0  0  0  0
    7.0428   12.7794   22.9235 O   0  0  0  0  0  0  0  0  0  0  0  0
    8.8315   14.1905   23.2138 N   0  0  0  0  0  0  0  0  0  0  0  0
   10.0687   14.5732   23.8822 C   0  0  0  0  0  0  0  0  0  0  0  0
   11.2311   14.4279   22.9119 C   0  0  0  0  0  0  0  0  0  0  0  0
   11.0755   15.3722   21.7193 C   0  0  1  0  0  0  0  0  0  0  0  0
   11.4909   14.7870   20.3707 C   0  0  0  0  0  0  0  0  0  0  0  0
   10.5425   15.2726   19.4198 N   0  0  0  0  0  0  0  0  0  0  0  0
    9.6457   16.1185   20.0213 C   0  0  0  0  0  0  0  0  0  0  0  0
    9.0398   17.0109   19.4600 O   0  0  0  0  0  0  0  0  0  0  0  0
    9.6295   15.8350   21.4966 C   0  0  1  0  0  0  0  0  0  0  0  0
    8.6001   14.7807   21.8840 C   0  0  0  0  0  0  0  0  0  0  0  0
  1  2  1  0
  2  3  1  0
  3  4  1  0
  4  5  2  0
  4  6  1  0
  6  7  1  0
  7  8  1  0
  9  8  1  1
  9 10  1  0
 10 11  1  0
 11 12  1  0
 12 13  2  0
 12 14  1  0
 14 15  1  6
 15  6  1  0
 14  9  1  0
M  END
>  <distance_score>  (148) 
0.607789

>  <ref_pdb>  (148) 
A0926a

>  <ref_mols>  (148) 
A0926a

>  <alias>  (148) 
None

>  <original SMILES>  (148) 
COCC(=O)N1CC[C@H]2CNC(=O)[C@H]2C1

>  <inchikey>  (148) 
UXXYHPYLHNCZEZ-YUMQZZPRSA-N

>  <exports>  (148) 
['/opt/xchem-fragalysis-2/maxwin/2A_HIPPO/hippo/A71EV2A_10_recipes/Recipe_1LPVPY0_poses.sdf']

>  <original ID>  (148) 
UXXYHPYLHNCZEZ-YUMQZZPRSA-N

>  <energy_score>  (148) 
-26.691033

>  <tags>  (148) 
[]

>  <HIPPO ID>  (148) 
110358

>  <name>  (148) 
UXXYHPYLHNCZEZ-YUMQZZPRSA-N

$$$$
UXXYHPYLHNCZEZ-YUMQZZPRSA-N
     RDKit          3D

 15 16  0  0  0  0  0  0  0  0999 V2000
    6.2758   11.7917   25.8183 C   0  0  0  0  0  0  0  0  0  0  0  0
    7.5362   11.3355   25.3482 O   0  0  0  0  0  0  0  0  0  0  0  0
    8.3704   12.4015   24.9170 C   0  0  0  0  0  0  0  0  0  0  0  0
    8.0088   13.1293   23.6021 C   0  0  0  0  0  0  0  0  0  0  0  0
    7.0414   12.7771   22.9228 O   0  0  0  0  0  0  0  0  0  0  0  0
    8.8326   14.1849   23.2126 N   0  0  0  0  0  0  0  0  0  0  0  0
   10.0708   14.5642   23.8800 C   0  0  0  0  0  0  0  0  0  0  0  0
   11.2323   14.4239   22.9081 C   0  0  0  0  0  0  0  0  0  0  0  0
   11.0752   15.3722   21.7189 C   0  0  1  0  0  0  0  0  0  0  0  0
   11.4923   14.7928   20.3683 C   0  0  0  0  0  0  0  0  0  0  0  0
   10.5435   15.2795   19.4188 N   0  0  0  0  0  0  0  0  0  0  0  0
    9.6440   16.1204   20.0233 C   0  0  0  0  0  0  0  0  0  0  0  0
    9.0356   17.0128   19.4653 O   0  0  0  0  0  0  0  0  0  0  0  0
    9.6282   15.8322   21.4976 C   0  0  1  0  0  0  0  0  0  0  0  0
    8.6014   14.7748   21.8824 C   0  0  0  0  0  0  0  0  0  0  0  0
  1  2  1  0
  2  3  1  0
  3  4  1  0
  4  5  2  0
  4  6  1  0
  6  7  1  0
  7  8  1  0
  9  8  1  1
  9 10  1  0
 10 11  1  0
 11 12  1  0
 12 13  2  0
 12 14  1  0
 14 15  1  6
 15  6  1  0
 14  9  1  0
M  END
>  <distance_score>  (149) 
0.609267

>  <ref_pdb>  (149) 
A0926a

>  <ref_mols>  (149) 
A0926a

>  <alias>  (149) 
None

>  <original SMILES>  (149) 
COCC(=O)N1CC[C@H]2CNC(=O)[C@H]2C1

>  <inchikey>  (149) 
UXXYHPYLHNCZEZ-YUMQZZPRSA-N

>  <exports>  (149) 
['/opt/xchem-fragalysis-2/maxwin/2A_HIPPO/hippo/A71EV2A_10_recipes/Recipe_1LPVPY0_poses.sdf']

>  <original ID>  (149) 
UXXYHPYLHNCZEZ-YUMQZZPRSA-N

>  <energy_score>  (149) 
-31.629122

>  <tags>  (149) 
[]

>  <HIPPO ID>  (149) 
110359

>  <name>  (149) 
UXXYHPYLHNCZEZ-YUMQZZPRSA-N

$$$$
WHKYEQZZBOYBAZ-BDAKNGLRSA-N
     RDKit          3D

 16 17  0  0  0  0  0  0  0  0999 V2000
   10.3078   14.8727   19.1046 N   0  0  0  0  0  0  0  0  0  0  0  0
    9.8301   15.8224   19.9504 C   0  0  0  0  0  0  0  0  0  0  0  0
    9.3469   16.8652   19.5205 O   0  0  0  0  0  0  0  0  0  0  0  0
    9.8917   15.5443   21.4404 C   0  0  2  0  0  0  0  0  0  0  0  0
   11.2586   15.0169   21.8929 C   0  0  0  0  0  0  0  0  0  0  0  0
   11.2334   14.3706   23.2809 C   0  0  0  0  0  0  0  0  0  0  0  0
    9.9519   14.6859   24.0311 C   0  0  0  0  0  0  0  0  0  0  0  0
    8.8337   14.1737   23.2529 N   0  0  0  0  0  0  0  0  0  0  0  0
    7.9808   13.1500   23.6534 C   0  0  0  0  0  0  0  0  0  0  0  0
    7.1048   12.7192   22.8951 O   0  0  0  0  0  0  0  0  0  0  0  0
    8.1873   12.5590   25.0755 C   0  0  2  0  0  0  0  0  0  0  0  0
    7.3980   11.3207   25.3166 C   0  0  0  0  0  0  0  0  0  0  0  0
    6.3375   11.6090   26.0699 C   0  0  0  0  0  0  0  0  0  0  0  0
    6.3633   13.0503   26.4156 C   0  0  0  0  0  0  0  0  0  0  0  0
    7.6969   13.4787   26.0706 O   0  0  0  0  0  0  0  0  0  0  0  0
    8.7435   14.6347   21.8636 C   0  0  0  0  0  0  0  0  0  0  0  0
  1  2  1  0
  2  3  2  0
  4  2  1  6
  4  5  1  0
  5  6  1  0
  6  7  1  0
  7  8  1  0
  8  9  1  0
  9 10  2  0
 11  9  1  6
 11 12  1  0
 12 13  2  0
 13 14  1  0
 14 15  1  0
  8 16  1  0
 16  4  1  0
 15 11  1  0
M  END
>  <distance_score>  (150) 
0.43513

>  <ref_pdb>  (150) 
A0926a

>  <ref_mols>  (150) 
A0926a

>  <alias>  (150) 
None

>  <original SMILES>  (150) 
NC(=O)[C@@H]1CCCN(C(=O)[C@@H]2C=CCO2)C1

>  <inchikey>  (150) 
WHKYEQZZBOYBAZ-BDAKNGLRSA-N

>  <exports>  (150) 
['/opt/xchem-fragalysis-2/maxwin/2A_HIPPO/hippo/A71EV2A_10_recipes/Recipe_1LPVPY0_poses.sdf']

>  <original ID>  (150) 
WHKYEQZZBOYBAZ-BDAKNGLRSA-N

>  <energy_score>  (150) 
-40.663852

>  <tags>  (150) 
[]

>  <HIPPO ID>  (150) 
111075

>  <name>  (150) 
WHKYEQZZBOYBAZ-BDAKNGLRSA-N

$$$$
WHKYEQZZBOYBAZ-IUCAKERBSA-N
     RDKit          3D

 16 17  0  0  0  0  0  0  0  0999 V2000
   10.3950   15.0390   18.9690 N   0  0  0  0  0  0  0  0  0  0  0  0
    9.7321   15.6328   20.0014 C   0  0  0  0  0  0  0  0  0  0  0  0
    9.2595   16.7569   19.9051 O   0  0  0  0  0  0  0  0  0  0  0  0
    9.7232   14.8291   21.2818 C   0  0  1  0  0  0  0  0  0  0  0  0
   11.0658   15.0352   21.9970 C   0  0  0  0  0  0  0  0  0  0  0  0
   11.0855   14.3603   23.3676 C   0  0  0  0  0  0  0  0  0  0  0  0
    9.8888   14.8243   24.1896 C   0  0  0  0  0  0  0  0  0  0  0  0
    8.6686   14.4906   23.4675 N   0  0  0  0  0  0  0  0  0  0  0  0
    7.9743   13.2925   23.6716 C   0  0  0  0  0  0  0  0  0  0  0  0
    7.2008   12.8267   22.8291 O   0  0  0  0  0  0  0  0  0  0  0  0
    8.2168   12.5802   25.0365 C   0  0  2  0  0  0  0  0  0  0  0  0
    7.4723   11.3036   25.1999 C   0  0  0  0  0  0  0  0  0  0  0  0
    6.4132   11.5008   25.9843 C   0  0  0  0  0  0  0  0  0  0  0  0
    6.3907   12.9156   26.4243 C   0  0  0  0  0  0  0  0  0  0  0  0
    7.7096   13.4045   26.1083 O   0  0  0  0  0  0  0  0  0  0  0  0
    8.5418   15.1924   22.1809 C   0  0  0  0  0  0  0  0  0  0  0  0
  1  2  1  0
  2  3  2  0
  4  2  1  6
  4  5  1  0
  5  6  1  0
  6  7  1  0
  7  8  1  0
  8  9  1  0
  9 10  2  0
 11  9  1  6
 11 12  1  0
 12 13  2  0
 13 14  1  0
 14 15  1  0
  8 16  1  0
 16  4  1  0
 15 11  1  0
M  END
>  <distance_score>  (151) 
0.389802

>  <ref_pdb>  (151) 
A0926a

>  <ref_mols>  (151) 
A0926a

>  <alias>  (151) 
None

>  <original SMILES>  (151) 
NC(=O)[C@H]1CCCN(C(=O)[C@@H]2C=CCO2)C1

>  <inchikey>  (151) 
WHKYEQZZBOYBAZ-IUCAKERBSA-N

>  <exports>  (151) 
['/opt/xchem-fragalysis-2/maxwin/2A_HIPPO/hippo/A71EV2A_10_recipes/Recipe_1LPVPY0_poses.sdf']

>  <original ID>  (151) 
WHKYEQZZBOYBAZ-IUCAKERBSA-N

>  <energy_score>  (151) 
-43.34735

>  <tags>  (151) 
[]

>  <HIPPO ID>  (151) 
111076

>  <name>  (151) 
WHKYEQZZBOYBAZ-IUCAKERBSA-N

$$$$
WHKYEQZZBOYBAZ-RKDXNWHRSA-N
     RDKit          3D

 16 17  0  0  0  0  0  0  0  0999 V2000
   10.2960   14.8888   19.1045 N   0  0  0  0  0  0  0  0  0  0  0  0
    9.8160   15.8305   19.9587 C   0  0  0  0  0  0  0  0  0  0  0  0
    9.3381   16.8798   19.5395 O   0  0  0  0  0  0  0  0  0  0  0  0
    9.8771   15.5374   21.4463 C   0  0  2  0  0  0  0  0  0  0  0  0
   11.2592   15.0472   21.8904 C   0  0  0  0  0  0  0  0  0  0  0  0
   11.2428   14.3234   23.2366 C   0  0  0  0  0  0  0  0  0  0  0  0
    9.9731   14.5975   24.0192 C   0  0  0  0  0  0  0  0  0  0  0  0
    8.8270   14.1378   23.2475 N   0  0  0  0  0  0  0  0  0  0  0  0
    7.9088   13.1702   23.6532 C   0  0  0  0  0  0  0  0  0  0  0  0
    7.0201   12.7771   22.8885 O   0  0  0  0  0  0  0  0  0  0  0  0
    8.0456   12.5878   25.0871 C   0  0  1  0  0  0  0  0  0  0  0  0
    7.5227   13.5602   26.0925 C   0  0  0  0  0  0  0  0  0  0  0  0
    6.3677   13.1177   26.5878 C   0  0  0  0  0  0  0  0  0  0  0  0
    6.0240   11.8297   25.9428 C   0  0  0  0  0  0  0  0  0  0  0  0
    7.2394   11.4121   25.2999 O   0  0  0  0  0  0  0  0  0  0  0  0
    8.7583   14.5858   21.8515 C   0  0  0  0  0  0  0  0  0  0  0  0
  1  2  1  0
  2  3  2  0
  4  2  1  6
  4  5  1  0
  5  6  1  0
  6  7  1  0
  7  8  1  0
  8  9  1  0
  9 10  2  0
 11  9  1  6
 11 12  1  0
 12 13  2  0
 13 14  1  0
 14 15  1  0
  8 16  1  0
 16  4  1  0
 15 11  1  0
M  END
>  <distance_score>  (152) 
0.485219

>  <ref_pdb>  (152) 
A0926a

>  <ref_mols>  (152) 
A0926a

>  <alias>  (152) 
None

>  <original SMILES>  (152) 
NC(=O)[C@@H]1CCCN(C(=O)[C@H]2C=CCO2)C1

>  <inchikey>  (152) 
WHKYEQZZBOYBAZ-RKDXNWHRSA-N

>  <exports>  (152) 
['/opt/xchem-fragalysis-2/maxwin/2A_HIPPO/hippo/A71EV2A_10_recipes/Recipe_1LPVPY0_poses.sdf']

>  <original ID>  (152) 
WHKYEQZZBOYBAZ-RKDXNWHRSA-N

>  <energy_score>  (152) 
-51.466463

>  <tags>  (152) 
[]

>  <HIPPO ID>  (152) 
111077

>  <name>  (152) 
WHKYEQZZBOYBAZ-RKDXNWHRSA-N

$$$$
WHKYEQZZBOYBAZ-DTWKUNHWSA-N
     RDKit          3D

 16 17  0  0  0  0  0  0  0  0999 V2000
   10.3865   15.0374   18.9603 N   0  0  0  0  0  0  0  0  0  0  0  0
    9.7304   15.6329   19.9963 C   0  0  0  0  0  0  0  0  0  0  0  0
    9.2625   16.7592   19.9043 O   0  0  0  0  0  0  0  0  0  0  0  0
    9.7236   14.8258   21.2734 C   0  0  1  0  0  0  0  0  0  0  0  0
   11.0731   15.0142   21.9765 C   0  0  0  0  0  0  0  0  0  0  0  0
   11.1010   14.3016   23.3253 C   0  0  0  0  0  0  0  0  0  0  0  0
    9.9178   14.7408   24.1770 C   0  0  0  0  0  0  0  0  0  0  0  0
    8.6757   14.4711   23.4625 N   0  0  0  0  0  0  0  0  0  0  0  0
    7.8964   13.3259   23.6697 C   0  0  0  0  0  0  0  0  0  0  0  0
    7.1053   12.9043   22.8197 O   0  0  0  0  0  0  0  0  0  0  0  0
    8.0462   12.6121   25.0467 C   0  0  1  0  0  0  0  0  0  0  0  0
    7.5192   13.4885   26.1383 C   0  0  0  0  0  0  0  0  0  0  0  0
    6.3786   12.9891   26.6105 C   0  0  0  0  0  0  0  0  0  0  0  0
    6.0482   11.7547   25.8650 C   0  0  0  0  0  0  0  0  0  0  0  0
    7.2579   11.4134   25.1681 O   0  0  0  0  0  0  0  0  0  0  0  0
    8.5602   15.2006   22.1883 C   0  0  0  0  0  0  0  0  0  0  0  0
  1  2  1  0
  2  3  2  0
  4  2  1  6
  4  5  1  0
  5  6  1  0
  6  7  1  0
  7  8  1  0
  8  9  1  0
  9 10  2  0
 11  9  1  6
 11 12  1  0
 12 13  2  0
 13 14  1  0
 14 15  1  0
  8 16  1  0
 16  4  1  0
 15 11  1  0
M  END
>  <distance_score>  (153) 
0.444051

>  <ref_pdb>  (153) 
A0926a

>  <ref_mols>  (153) 
A0926a

>  <alias>  (153) 
None

>  <original SMILES>  (153) 
NC(=O)[C@H]1CCCN(C(=O)[C@H]2C=CCO2)C1

>  <inchikey>  (153) 
WHKYEQZZBOYBAZ-DTWKUNHWSA-N

>  <exports>  (153) 
['/opt/xchem-fragalysis-2/maxwin/2A_HIPPO/hippo/A71EV2A_10_recipes/Recipe_1LPVPY0_poses.sdf']

>  <original ID>  (153) 
WHKYEQZZBOYBAZ-DTWKUNHWSA-N

>  <energy_score>  (153) 
-54.065962

>  <tags>  (153) 
[]

>  <HIPPO ID>  (153) 
111078

>  <name>  (153) 
WHKYEQZZBOYBAZ-DTWKUNHWSA-N

$$$$
WAAUJLRBGAYWQP-RKDXNWHRSA-N
     RDKit          3D

 16 17  0  0  0  0  0  0  0  0999 V2000
   10.4440   14.8691   19.1919 N   0  0  0  0  0  0  0  0  0  0  0  0
    9.9032   15.8142   20.0060 C   0  0  0  0  0  0  0  0  0  0  0  0
    9.4190   16.8409   19.5391 O   0  0  0  0  0  0  0  0  0  0  0  0
    9.8576   15.5383   21.4990 C   0  0  2  0  0  0  0  0  0  0  0  0
   11.1782   15.0719   22.1118 C   0  0  0  0  0  0  0  0  0  0  0  0
   10.9908   14.2602   23.4040 C   0  0  0  0  0  0  0  0  0  0  0  0
    9.6455   14.5133   24.0875 C   0  0  0  0  0  0  0  0  0  0  0  0
    8.5574   14.2178   23.1694 N   0  0  0  0  0  0  0  0  0  0  0  0
    7.5196   13.3632   23.4373 C   0  0  0  0  0  0  0  0  0  0  0  0
    6.9326   12.7730   22.5214 O   0  0  0  0  0  0  0  0  0  0  0  0
    6.9441   13.2046   24.8407 C   0  0  1  0  0  0  0  0  0  0  0  0
    6.8315   11.7448   25.2281 C   0  0  0  0  0  0  0  0  0  0  0  0
    5.9036   11.8800   26.4045 C   0  0  0  0  0  0  0  0  0  0  0  0
    6.3704   13.1966   27.0138 C   0  0  0  0  0  0  0  0  0  0  0  0
    7.3177   13.7703   26.0758 O   0  0  0  0  0  0  0  0  0  0  0  0
    8.7620   14.5310   21.7587 C   0  0  0  0  0  0  0  0  0  0  0  0
  1  2  1  0
  2  3  2  0
  4  2  1  6
  4  5  1  0
  5  6  1  0
  6  7  1  0
  7  8  1  0
  8  9  1  0
  9 10  2  0
 11  9  1  6
 11 12  1  0
 12 13  1  0
 13 14  1  0
 14 15  1  0
  8 16  1  0
 16  4  1  0
 15 11  1  0
M  END
>  <distance_score>  (154) 
1.158381

>  <ref_pdb>  (154) 
A0926a

>  <ref_mols>  (154) 
A0926a

>  <alias>  (154) 
None

>  <original SMILES>  (154) 
NC(=O)[C@@H]1CCCN(C(=O)[C@H]2CCCO2)C1

>  <inchikey>  (154) 
WAAUJLRBGAYWQP-RKDXNWHRSA-N

>  <exports>  (154) 
['/opt/xchem-fragalysis-2/maxwin/2A_HIPPO/hippo/A71EV2A_10_recipes/Recipe_1LPUPHX_poses.sdf', '/opt/xchem-fragalysis-2/maxwin/2A_HIPPO/hippo/A71EV2A_10_recipes/Recipe_1LPVPY0_poses.sdf']

>  <original ID>  (154) 
WAAUJLRBGAYWQP-RKDXNWHRSA-N

>  <energy_score>  (154) 
-32.809947

>  <tags>  (154) 
[]

>  <HIPPO ID>  (154) 
111083

>  <name>  (154) 
WAAUJLRBGAYWQP-RKDXNWHRSA-N

$$$$
WAAUJLRBGAYWQP-IUCAKERBSA-N
     RDKit          3D

 16 17  0  0  0  0  0  0  0  0999 V2000
   10.3877   15.0244   18.9529 N   0  0  0  0  0  0  0  0  0  0  0  0
    9.7299   15.6268   19.9836 C   0  0  0  0  0  0  0  0  0  0  0  0
    9.2617   16.7521   19.8820 O   0  0  0  0  0  0  0  0  0  0  0  0
    9.7256   14.8313   21.2682 C   0  0  1  0  0  0  0  0  0  0  0  0
   11.0756   15.0412   21.9681 C   0  0  0  0  0  0  0  0  0  0  0  0
   11.1055   14.3849   23.3459 C   0  0  0  0  0  0  0  0  0  0  0  0
    9.9189   14.8685   24.1700 C   0  0  0  0  0  0  0  0  0  0  0  0
    8.6908   14.5204   23.4678 N   0  0  0  0  0  0  0  0  0  0  0  0
    8.0001   13.3295   23.7037 C   0  0  0  0  0  0  0  0  0  0  0  0
    7.2180   12.8354   22.8879 O   0  0  0  0  0  0  0  0  0  0  0  0
    8.2668   12.6501   25.0707 C   0  0  2  0  0  0  0  0  0  0  0  0
    7.4974   11.3687   25.2909 C   0  0  0  0  0  0  0  0  0  0  0  0
    6.1556   11.8725   25.7561 C   0  0  0  0  0  0  0  0  0  0  0  0
    6.4973   13.1502   26.4923 C   0  0  0  0  0  0  0  0  0  0  0  0
    7.8466   13.5038   26.1454 O   0  0  0  0  0  0  0  0  0  0  0  0
    8.5495   15.2015   22.1718 C   0  0  0  0  0  0  0  0  0  0  0  0
  1  2  1  0
  2  3  2  0
  4  2  1  6
  4  5  1  0
  5  6  1  0
  6  7  1  0
  7  8  1  0
  8  9  1  0
  9 10  2  0
 11  9  1  6
 11 12  1  0
 12 13  1  0
 13 14  1  0
 14 15  1  0
  8 16  1  0
 16  4  1  0
 15 11  1  0
M  END
>  <distance_score>  (155) 
0.412711

>  <ref_pdb>  (155) 
A0926a

>  <ref_mols>  (155) 
A0926a

>  <alias>  (155) 
None

>  <original SMILES>  (155) 
NC(=O)[C@H]1CCCN(C(=O)[C@@H]2CCCO2)C1

>  <inchikey>  (155) 
WAAUJLRBGAYWQP-IUCAKERBSA-N

>  <exports>  (155) 
['/opt/xchem-fragalysis-2/maxwin/2A_HIPPO/hippo/A71EV2A_10_recipes/Recipe_1LPUPHX_poses.sdf', '/opt/xchem-fragalysis-2/maxwin/2A_HIPPO/hippo/A71EV2A_10_recipes/Recipe_1LPVPY0_poses.sdf']

>  <original ID>  (155) 
WAAUJLRBGAYWQP-IUCAKERBSA-N

>  <energy_score>  (155) 
-36.201513

>  <tags>  (155) 
[]

>  <HIPPO ID>  (155) 
111084

>  <name>  (155) 
WAAUJLRBGAYWQP-IUCAKERBSA-N

$$$$
WAAUJLRBGAYWQP-RKDXNWHRSA-N
     RDKit          3D

 16 17  0  0  0  0  0  0  0  0999 V2000
   10.3034   14.8769   19.1007 N   0  0  0  0  0  0  0  0  0  0  0  0
    9.8191   15.8207   19.9490 C   0  0  0  0  0  0  0  0  0  0  0  0
    9.3431   16.8692   19.5254 O   0  0  0  0  0  0  0  0  0  0  0  0
    9.8727   15.5336   21.4374 C   0  0  2  0  0  0  0  0  0  0  0  0
   11.2522   15.0481   21.8954 C   0  0  0  0  0  0  0  0  0  0  0  0
   11.2236   14.3464   23.2543 C   0  0  0  0  0  0  0  0  0  0  0  0
    9.9498   14.6491   24.0226 C   0  0  0  0  0  0  0  0  0  0  0  0
    8.8077   14.1692   23.2552 N   0  0  0  0  0  0  0  0  0  0  0  0
    7.9112   13.1865   23.6650 C   0  0  0  0  0  0  0  0  0  0  0  0
    7.0578   12.7354   22.8955 O   0  0  0  0  0  0  0  0  0  0  0  0
    7.9967   12.6948   25.1288 C   0  0  1  0  0  0  0  0  0  0  0  0
    7.4313   13.7659   26.0620 C   0  0  0  0  0  0  0  0  0  0  0  0
    6.2782   13.0909   26.7712 C   0  0  0  0  0  0  0  0  0  0  0  0
    5.9696   11.9137   25.8831 C   0  0  0  0  0  0  0  0  0  0  0  0
    7.2389   11.5007   25.3762 O   0  0  0  0  0  0  0  0  0  0  0  0
    8.7584   14.5774   21.8442 C   0  0  0  0  0  0  0  0  0  0  0  0
  1  2  1  0
  2  3  2  0
  4  2  1  6
  4  5  1  0
  5  6  1  0
  6  7  1  0
  7  8  1  0
  8  9  1  0
  9 10  2  0
 11  9  1  6
 11 12  1  0
 12 13  1  0
 13 14  1  0
 14 15  1  0
  8 16  1  0
 16  4  1  0
 15 11  1  0
M  END
>  <distance_score>  (156) 
0.502283

>  <ref_pdb>  (156) 
A0926a

>  <ref_mols>  (156) 
A0926a

>  <alias>  (156) 
None

>  <original SMILES>  (156) 
NC(=O)[C@@H]1CCCN(C(=O)[C@H]2CCCO2)C1

>  <inchikey>  (156) 
WAAUJLRBGAYWQP-RKDXNWHRSA-N

>  <exports>  (156) 
['/opt/xchem-fragalysis-2/maxwin/2A_HIPPO/hippo/A71EV2A_10_recipes/Recipe_1LPUPHX_poses.sdf', '/opt/xchem-fragalysis-2/maxwin/2A_HIPPO/hippo/A71EV2A_10_recipes/Recipe_1LPVPY0_poses.sdf']

>  <original ID>  (156) 
WAAUJLRBGAYWQP-RKDXNWHRSA-N

>  <energy_score>  (156) 
-39.295673

>  <tags>  (156) 
[]

>  <HIPPO ID>  (156) 
111085

>  <name>  (156) 
WAAUJLRBGAYWQP-RKDXNWHRSA-N

$$$$
WAAUJLRBGAYWQP-DTWKUNHWSA-N
     RDKit          3D

 16 17  0  0  0  0  0  0  0  0999 V2000
   10.3977   15.0374   18.9568 N   0  0  0  0  0  0  0  0  0  0  0  0
    9.7340   15.6283   19.9898 C   0  0  0  0  0  0  0  0  0  0  0  0
    9.2667   16.7552   19.9001 O   0  0  0  0  0  0  0  0  0  0  0  0
    9.7172   14.8184   21.2659 C   0  0  1  0  0  0  0  0  0  0  0  0
   11.0612   15.0084   21.9803 C   0  0  0  0  0  0  0  0  0  0  0  0
   11.0721   14.3252   23.3451 C   0  0  0  0  0  0  0  0  0  0  0  0
    9.8845   14.7988   24.1725 C   0  0  0  0  0  0  0  0  0  0  0  0
    8.6502   14.4987   23.4571 N   0  0  0  0  0  0  0  0  0  0  0  0
    7.8930   13.3451   23.6830 C   0  0  0  0  0  0  0  0  0  0  0  0
    7.1444   12.8612   22.8309 O   0  0  0  0  0  0  0  0  0  0  0  0
    7.9822   12.7351   25.1067 C   0  0  1  0  0  0  0  0  0  0  0  0
    7.3879   13.7239   26.1155 C   0  0  0  0  0  0  0  0  0  0  0  0
    6.2547   12.9751   26.7771 C   0  0  0  0  0  0  0  0  0  0  0  0
    5.9775   11.8554   25.8097 C   0  0  0  0  0  0  0  0  0  0  0  0
    7.2534   11.5108   25.2693 O   0  0  0  0  0  0  0  0  0  0  0  0
    8.5412   15.1948   22.1642 C   0  0  0  0  0  0  0  0  0  0  0  0
  1  2  1  0
  2  3  2  0
  4  2  1  6
  4  5  1  0
  5  6  1  0
  6  7  1  0
  7  8  1  0
  8  9  1  0
  9 10  2  0
 11  9  1  6
 11 12  1  0
 12 13  1  0
 13 14  1  0
 14 15  1  0
  8 16  1  0
 16  4  1  0
 15 11  1  0
M  END
>  <distance_score>  (157) 
0.472537

>  <ref_pdb>  (157) 
A0926a

>  <ref_mols>  (157) 
A0926a

>  <alias>  (157) 
None

>  <original SMILES>  (157) 
NC(=O)[C@H]1CCCN(C(=O)[C@H]2CCCO2)C1

>  <inchikey>  (157) 
WAAUJLRBGAYWQP-DTWKUNHWSA-N

>  <exports>  (157) 
['/opt/xchem-fragalysis-2/maxwin/2A_HIPPO/hippo/A71EV2A_10_recipes/Recipe_1LPUPHX_poses.sdf', '/opt/xchem-fragalysis-2/maxwin/2A_HIPPO/hippo/A71EV2A_10_recipes/Recipe_1LPVPY0_poses.sdf']

>  <original ID>  (157) 
WAAUJLRBGAYWQP-DTWKUNHWSA-N

>  <energy_score>  (157) 
-33.360268

>  <tags>  (157) 
[]

>  <HIPPO ID>  (157) 
111086

>  <name>  (157) 
WAAUJLRBGAYWQP-DTWKUNHWSA-N

$$$$
SATZTWBVFPAGRT-GUBZILKMSA-N
     RDKit          3D

 17 19  0  0  0  0  0  0  0  0999 V2000
    9.0529   16.9845   19.3497 O   0  0  0  0  0  0  0  0  0  0  0  0
    9.6566   16.1111   19.9417 C   0  0  0  0  0  0  0  0  0  0  0  0
   10.5683   15.2556   19.3773 N   0  0  0  0  0  0  0  0  0  0  0  0
   11.5003   14.7949   20.3568 C   0  0  0  0  0  0  0  0  0  0  0  0
   11.0690   15.4254   21.6795 C   0  0  2  0  0  0  0  0  0  0  0  0
   11.2144   14.5280   22.9106 C   0  0  0  0  0  0  0  0  0  0  0  0
   10.0325   14.7142   23.8545 C   0  0  0  0  0  0  0  0  0  0  0  0
    8.8190   14.2746   23.1774 N   0  0  0  0  0  0  0  0  0  0  0  0
    8.0064   13.2276   23.6032 C   0  0  0  0  0  0  0  0  0  0  0  0
    7.1089   12.7705   22.8894 O   0  0  0  0  0  0  0  0  0  0  0  0
    8.2757   12.6445   25.0091 C   0  0  2  0  0  0  0  0  0  0  0  0
    7.4630   11.4095   25.3292 C   0  0  0  0  0  0  0  0  0  0  0  0
    6.1557   11.9862   25.8045 C   0  0  0  0  0  0  0  0  0  0  0  0
    6.5671   13.2950   26.4453 C   0  0  0  0  0  0  0  0  0  0  0  0
    7.9110   13.5901   26.0225 O   0  0  0  0  0  0  0  0  0  0  0  0
    8.6093   14.7978   21.8187 C   0  0  0  0  0  0  0  0  0  0  0  0
    9.6205   15.8652   21.4223 C   0  0  2  0  0  0  0  0  0  0  0  0
  1  2  2  0
  2  3  1  0
  3  4  1  0
  5  4  1  6
  5  6  1  0
  6  7  1  0
  7  8  1  0
  8  9  1  0
  9 10  2  0
 11  9  1  6
 11 12  1  0
 12 13  1  0
 13 14  1  0
 14 15  1  0
  8 16  1  0
 17 16  1  6
 17  2  1  0
 17  5  1  0
 15 11  1  0
M  END
>  <distance_score>  (158) 
0.633026

>  <ref_pdb>  (158) 
A0926a

>  <ref_mols>  (158) 
A0926a

>  <alias>  (158) 
None

>  <original SMILES>  (158) 
O=C1NC[C@@H]2CCN(C(=O)[C@@H]3CCCO3)C[C@H]12

>  <inchikey>  (158) 
SATZTWBVFPAGRT-GUBZILKMSA-N

>  <exports>  (158) 
['/opt/xchem-fragalysis-2/maxwin/2A_HIPPO/hippo/A71EV2A_10_recipes/Recipe_1LPVPY0_poses.sdf']

>  <original ID>  (158) 
SATZTWBVFPAGRT-GUBZILKMSA-N

>  <energy_score>  (158) 
-32.214143

>  <tags>  (158) 
[]

>  <HIPPO ID>  (158) 
112788

>  <name>  (158) 
SATZTWBVFPAGRT-GUBZILKMSA-N

$$$$
SATZTWBVFPAGRT-GUBZILKMSA-N
     RDKit          3D

 17 19  0  0  0  0  0  0  0  0999 V2000
    9.0550   16.9775   19.3512 O   0  0  0  0  0  0  0  0  0  0  0  0
    9.6607   16.1046   19.9422 C   0  0  0  0  0  0  0  0  0  0  0  0
   10.5666   15.2451   19.3746 N   0  0  0  0  0  0  0  0  0  0  0  0
   11.5053   14.7868   20.3494 C   0  0  0  0  0  0  0  0  0  0  0  0
   11.0811   15.4197   21.6734 C   0  0  2  0  0  0  0  0  0  0  0  0
   11.2321   14.5241   22.9045 C   0  0  0  0  0  0  0  0  0  0  0  0
   10.0553   14.7095   23.8535 C   0  0  0  0  0  0  0  0  0  0  0  0
    8.8389   14.2702   23.1820 N   0  0  0  0  0  0  0  0  0  0  0  0
    8.0339   13.2179   23.6090 C   0  0  0  0  0  0  0  0  0  0  0  0
    7.1221   12.7702   22.9075 O   0  0  0  0  0  0  0  0  0  0  0  0
    8.3379   12.6115   24.9990 C   0  0  2  0  0  0  0  0  0  0  0  0
    7.5043   11.3943   25.3327 C   0  0  0  0  0  0  0  0  0  0  0  0
    6.2270   11.9992   25.8535 C   0  0  0  0  0  0  0  0  0  0  0  0
    6.6902   13.2978   26.4836 C   0  0  0  0  0  0  0  0  0  0  0  0
    8.0371   13.5469   26.0426 O   0  0  0  0  0  0  0  0  0  0  0  0
    8.6180   14.8005   21.8279 C   0  0  0  0  0  0  0  0  0  0  0  0
    9.6322   15.8625   21.4235 C   0  0  2  0  0  0  0  0  0  0  0  0
  1  2  2  0
  2  3  1  0
  3  4  1  0
  5  4  1  6
  5  6  1  0
  6  7  1  0
  7  8  1  0
  8  9  1  0
  9 10  2  0
 11  9  1  6
 11 12  1  0
 12 13  1  0
 13 14  1  0
 14 15  1  0
  8 16  1  0
 17 16  1  6
 17  2  1  0
 17  5  1  0
 15 11  1  0
M  END
>  <distance_score>  (159) 
0.626112

>  <ref_pdb>  (159) 
A0926a

>  <ref_mols>  (159) 
A0926a

>  <alias>  (159) 
None

>  <original SMILES>  (159) 
O=C1NC[C@@H]2CCN(C(=O)[C@@H]3CCCO3)C[C@H]12

>  <inchikey>  (159) 
SATZTWBVFPAGRT-GUBZILKMSA-N

>  <exports>  (159) 
['/opt/xchem-fragalysis-2/maxwin/2A_HIPPO/hippo/A71EV2A_10_recipes/Recipe_1LPVPY0_poses.sdf']

>  <original ID>  (159) 
SATZTWBVFPAGRT-GUBZILKMSA-N

>  <energy_score>  (159) 
-32.179927

>  <tags>  (159) 
[]

>  <HIPPO ID>  (159) 
112789

>  <name>  (159) 
SATZTWBVFPAGRT-GUBZILKMSA-N

$$$$
SATZTWBVFPAGRT-LPEHRKFASA-N
     RDKit          3D

 17 19  0  0  0  0  0  0  0  0999 V2000
    9.0674   16.9536   19.3735 O   0  0  0  0  0  0  0  0  0  0  0  0
    9.6732   16.0790   19.9615 C   0  0  0  0  0  0  0  0  0  0  0  0
   10.5881   15.2289   19.3947 N   0  0  0  0  0  0  0  0  0  0  0  0
   11.5208   14.7675   20.3745 C   0  0  0  0  0  0  0  0  0  0  0  0
   11.0734   15.3752   21.7041 C   0  0  2  0  0  0  0  0  0  0  0  0
   11.1995   14.4507   22.9176 C   0  0  0  0  0  0  0  0  0  0  0  0
   10.0171   14.6251   23.8638 C   0  0  0  0  0  0  0  0  0  0  0  0
    8.7868   14.2379   23.1828 N   0  0  0  0  0  0  0  0  0  0  0  0
    7.9224   13.2258   23.5975 C   0  0  0  0  0  0  0  0  0  0  0  0
    7.0493   12.7795   22.8474 O   0  0  0  0  0  0  0  0  0  0  0  0
    8.0563   12.7084   25.0505 C   0  0  1  0  0  0  0  0  0  0  0  0
    7.5248   13.7681   26.0153 C   0  0  0  0  0  0  0  0  0  0  0  0
    6.3501   13.1102   26.7078 C   0  0  0  0  0  0  0  0  0  0  0  0
    6.0371   11.9281   25.8264 C   0  0  0  0  0  0  0  0  0  0  0  0
    7.3031   11.5148   25.3090 O   0  0  0  0  0  0  0  0  0  0  0  0
    8.6222   14.7407   21.8096 C   0  0  0  0  0  0  0  0  0  0  0  0
    9.6289   15.8190   21.4391 C   0  0  2  0  0  0  0  0  0  0  0  0
  1  2  2  0
  2  3  1  0
  3  4  1  0
  5  4  1  6
  5  6  1  0
  6  7  1  0
  7  8  1  0
  8  9  1  0
  9 10  2  0
 11  9  1  6
 11 12  1  0
 12 13  1  0
 13 14  1  0
 14 15  1  0
  8 16  1  0
 17 16  1  6
 17  2  1  0
 17  5  1  0
 15 11  1  0
M  END
>  <distance_score>  (160) 
0.642096

>  <ref_pdb>  (160) 
A0926a

>  <ref_mols>  (160) 
A0926a

>  <alias>  (160) 
None

>  <original SMILES>  (160) 
O=C1NC[C@@H]2CCN(C(=O)[C@H]3CCCO3)C[C@H]12

>  <inchikey>  (160) 
SATZTWBVFPAGRT-LPEHRKFASA-N

>  <exports>  (160) 
['/opt/xchem-fragalysis-2/maxwin/2A_HIPPO/hippo/A71EV2A_10_recipes/Recipe_1LPVPY0_poses.sdf']

>  <original ID>  (160) 
SATZTWBVFPAGRT-LPEHRKFASA-N

>  <energy_score>  (160) 
-25.626392

>  <tags>  (160) 
[]

>  <HIPPO ID>  (160) 
112790

>  <name>  (160) 
SATZTWBVFPAGRT-LPEHRKFASA-N

$$$$
SATZTWBVFPAGRT-LPEHRKFASA-N
     RDKit          3D

 17 19  0  0  0  0  0  0  0  0999 V2000
    9.0617   16.9716   19.3679 O   0  0  0  0  0  0  0  0  0  0  0  0
    9.6702   16.0935   19.9483 C   0  0  0  0  0  0  0  0  0  0  0  0
   10.5941   15.2574   19.3761 N   0  0  0  0  0  0  0  0  0  0  0  0
   11.5209   14.7834   20.3549 C   0  0  0  0  0  0  0  0  0  0  0  0
   11.0705   15.3820   21.6876 C   0  0  2  0  0  0  0  0  0  0  0  0
   11.1987   14.4503   22.8950 C   0  0  0  0  0  0  0  0  0  0  0  0
   10.0153   14.6125   23.8425 C   0  0  0  0  0  0  0  0  0  0  0  0
    8.7809   14.2362   23.1605 N   0  0  0  0  0  0  0  0  0  0  0  0
    7.8954   13.2477   23.5897 C   0  0  0  0  0  0  0  0  0  0  0  0
    7.0318   12.7853   22.8388 O   0  0  0  0  0  0  0  0  0  0  0  0
    7.9832   12.7934   25.0662 C   0  0  1  0  0  0  0  0  0  0  0  0
    7.4271   13.8988   25.9529 C   0  0  0  0  0  0  0  0  0  0  0  0
    5.9654   13.5358   26.0294 C   0  0  0  0  0  0  0  0  0  0  0  0
    6.0031   12.0275   26.0253 C   0  0  0  0  0  0  0  0  0  0  0  0
    7.2071   11.6237   25.3657 O   0  0  0  0  0  0  0  0  0  0  0  0
    8.6302   14.7225   21.7809 C   0  0  0  0  0  0  0  0  0  0  0  0
    9.6234   15.8171   21.4229 C   0  0  2  0  0  0  0  0  0  0  0  0
  1  2  2  0
  2  3  1  0
  3  4  1  0
  5  4  1  6
  5  6  1  0
  6  7  1  0
  7  8  1  0
  8  9  1  0
  9 10  2  0
 11  9  1  6
 11 12  1  0
 12 13  1  0
 13 14  1  0
 14 15  1  0
  8 16  1  0
 17 16  1  6
 17  2  1  0
 17  5  1  0
 15 11  1  0
M  END
>  <distance_score>  (161) 
0.682156

>  <ref_pdb>  (161) 
A0926a

>  <ref_mols>  (161) 
A0926a

>  <alias>  (161) 
None

>  <original SMILES>  (161) 
O=C1NC[C@@H]2CCN(C(=O)[C@H]3CCCO3)C[C@H]12

>  <inchikey>  (161) 
SATZTWBVFPAGRT-LPEHRKFASA-N

>  <exports>  (161) 
['/opt/xchem-fragalysis-2/maxwin/2A_HIPPO/hippo/A71EV2A_10_recipes/Recipe_1LPVPY0_poses.sdf']

>  <original ID>  (161) 
SATZTWBVFPAGRT-LPEHRKFASA-N

>  <energy_score>  (161) 
-31.495123

>  <tags>  (161) 
[]

>  <HIPPO ID>  (161) 
112791

>  <name>  (161) 
SATZTWBVFPAGRT-LPEHRKFASA-N

$$$$
SATZTWBVFPAGRT-AEJSXWLSSA-N
     RDKit          3D

 17 19  0  0  0  0  0  0  0  0999 V2000
    9.0289   16.6601   19.5072 O   0  0  0  0  0  0  0  0  0  0  0  0
    9.6524   15.7169   19.9412 C   0  0  0  0  0  0  0  0  0  0  0  0
   10.8619   15.2665   19.4347 N   0  0  0  0  0  0  0  0  0  0  0  0
   11.6567   14.7719   20.5267 C   0  0  0  0  0  0  0  0  0  0  0  0
   10.8450   15.1259   21.7599 C   0  0  2  0  0  0  0  0  0  0  0  0
   11.0408   14.3651   23.0590 C   0  0  0  0  0  0  0  0  0  0  0  0
    9.9467   14.8309   24.0329 C   0  0  0  0  0  0  0  0  0  0  0  0
    8.6289   14.5721   23.4497 N   0  0  0  0  0  0  0  0  0  0  0  0
    7.9562   13.3645   23.6796 C   0  0  0  0  0  0  0  0  0  0  0  0
    7.1594   12.8750   22.8758 O   0  0  0  0  0  0  0  0  0  0  0  0
    8.2583   12.6702   25.0325 C   0  0  2  0  0  0  0  0  0  0  0  0
    7.4909   11.3911   25.2721 C   0  0  0  0  0  0  0  0  0  0  0  0
    6.1588   11.8970   25.7616 C   0  0  0  0  0  0  0  0  0  0  0  0
    6.5169   13.1780   26.4850 C   0  0  0  0  0  0  0  0  0  0  0  0
    7.8647   13.5228   26.1182 O   0  0  0  0  0  0  0  0  0  0  0  0
    8.3716   15.3184   22.1951 C   0  0  0  0  0  0  0  0  0  0  0  0
    9.4360   14.9341   21.2035 C   0  0  1  0  0  0  0  0  0  0  0  0
  1  2  2  0
  2  3  1  0
  3  4  1  0
  5  4  1  6
  5  6  1  0
  6  7  1  0
  7  8  1  0
  8  9  1  0
  9 10  2  0
 11  9  1  6
 11 12  1  0
 12 13  1  0
 13 14  1  0
 14 15  1  0
  8 16  1  0
 17 16  1  1
 17  2  1  0
 17  5  1  0
 15 11  1  0
M  END
>  <distance_score>  (162) 
0.561645

>  <ref_pdb>  (162) 
A0926a

>  <ref_mols>  (162) 
A0926a

>  <alias>  (162) 
None

>  <original SMILES>  (162) 
O=C1NC[C@@H]2CCN(C(=O)[C@@H]3CCCO3)C[C@@H]12

>  <inchikey>  (162) 
SATZTWBVFPAGRT-AEJSXWLSSA-N

>  <exports>  (162) 
['/opt/xchem-fragalysis-2/maxwin/2A_HIPPO/hippo/A71EV2A_10_recipes/Recipe_1LPVPY0_poses.sdf']

>  <original ID>  (162) 
SATZTWBVFPAGRT-AEJSXWLSSA-N

>  <energy_score>  (162) 
-27.469779

>  <tags>  (162) 
[]

>  <HIPPO ID>  (162) 
112792

>  <name>  (162) 
SATZTWBVFPAGRT-AEJSXWLSSA-N

$$$$
SATZTWBVFPAGRT-AEJSXWLSSA-N
     RDKit          3D

 17 19  0  0  0  0  0  0  0  0999 V2000
    9.0328   16.6428   19.4928 O   0  0  0  0  0  0  0  0  0  0  0  0
    9.6533   15.7032   19.9383 C   0  0  0  0  0  0  0  0  0  0  0  0
   10.8628   15.2464   19.4344 N   0  0  0  0  0  0  0  0  0  0  0  0
   11.6548   14.7630   20.5335 C   0  0  0  0  0  0  0  0  0  0  0  0
   10.8431   15.1272   21.7628 C   0  0  2  0  0  0  0  0  0  0  0  0
   11.0414   14.3747   23.0663 C   0  0  0  0  0  0  0  0  0  0  0  0
    9.9457   14.8419   24.0374 C   0  0  0  0  0  0  0  0  0  0  0  0
    8.6298   14.5746   23.4519 N   0  0  0  0  0  0  0  0  0  0  0  0
    7.9651   13.3633   23.6809 C   0  0  0  0  0  0  0  0  0  0  0  0
    7.1681   12.8712   22.8785 O   0  0  0  0  0  0  0  0  0  0  0  0
    8.2821   12.6627   25.0279 C   0  0  2  0  0  0  0  0  0  0  0  0
    7.5030   11.3920   25.2743 C   0  0  0  0  0  0  0  0  0  0  0  0
    6.1808   11.9125   25.7772 C   0  0  0  0  0  0  0  0  0  0  0  0
    6.5557   13.2008   26.4813 C   0  0  0  0  0  0  0  0  0  0  0  0
    7.9155   13.5088   26.1270 O   0  0  0  0  0  0  0  0  0  0  0  0
    8.3709   15.3201   22.1972 C   0  0  0  0  0  0  0  0  0  0  0  0
    9.4347   14.9310   21.2067 C   0  0  1  0  0  0  0  0  0  0  0  0
  1  2  2  0
  2  3  1  0
  3  4  1  0
  5  4  1  6
  5  6  1  0
  6  7  1  0
  7  8  1  0
  8  9  1  0
  9 10  2  0
 11  9  1  6
 11 12  1  0
 12 13  1  0
 13 14  1  0
 14 15  1  0
  8 16  1  0
 17 16  1  1
 17  2  1  0
 17  5  1  0
 15 11  1  0
M  END
>  <distance_score>  (163) 
0.556923

>  <ref_pdb>  (163) 
A0926a

>  <ref_mols>  (163) 
A0926a

>  <alias>  (163) 
None

>  <original SMILES>  (163) 
O=C1NC[C@@H]2CCN(C(=O)[C@@H]3CCCO3)C[C@@H]12

>  <inchikey>  (163) 
SATZTWBVFPAGRT-AEJSXWLSSA-N

>  <exports>  (163) 
['/opt/xchem-fragalysis-2/maxwin/2A_HIPPO/hippo/A71EV2A_10_recipes/Recipe_1LPVPY0_poses.sdf']

>  <original ID>  (163) 
SATZTWBVFPAGRT-AEJSXWLSSA-N

>  <energy_score>  (163) 
-28.276309

>  <tags>  (163) 
[]

>  <HIPPO ID>  (163) 
112793

>  <name>  (163) 
SATZTWBVFPAGRT-AEJSXWLSSA-N

$$$$
SATZTWBVFPAGRT-IVZWLZJFSA-N
     RDKit          3D

 17 19  0  0  0  0  0  0  0  0999 V2000
    9.0430   16.6758   19.4719 O   0  0  0  0  0  0  0  0  0  0  0  0
    9.6654   15.7297   19.9023 C   0  0  0  0  0  0  0  0  0  0  0  0
   10.8740   15.2768   19.3989 N   0  0  0  0  0  0  0  0  0  0  0  0
   11.6604   14.7593   20.4864 C   0  0  0  0  0  0  0  0  0  0  0  0
   10.8455   15.0972   21.7225 C   0  0  2  0  0  0  0  0  0  0  0  0
   11.0128   14.2958   23.0002 C   0  0  0  0  0  0  0  0  0  0  0  0
    9.9248   14.7535   23.9829 C   0  0  0  0  0  0  0  0  0  0  0  0
    8.5948   14.5730   23.3912 N   0  0  0  0  0  0  0  0  0  0  0  0
    7.8350   13.4162   23.6215 C   0  0  0  0  0  0  0  0  0  0  0  0
    7.0705   12.9361   22.7825 O   0  0  0  0  0  0  0  0  0  0  0  0
    7.9444   12.8139   25.0461 C   0  0  1  0  0  0  0  0  0  0  0  0
    7.4236   13.8348   26.0526 C   0  0  0  0  0  0  0  0  0  0  0  0
    5.9739   13.4561   26.1822 C   0  0  0  0  0  0  0  0  0  0  0  0
    5.9992   11.9599   26.0019 C   0  0  0  0  0  0  0  0  0  0  0  0
    7.1693   11.6255   25.2515 O   0  0  0  0  0  0  0  0  0  0  0  0
    8.3787   15.3386   22.1420 C   0  0  0  0  0  0  0  0  0  0  0  0
    9.4386   14.9381   21.1560 C   0  0  1  0  0  0  0  0  0  0  0  0
  1  2  2  0
  2  3  1  0
  3  4  1  0
  5  4  1  6
  5  6  1  0
  6  7  1  0
  7  8  1  0
  8  9  1  0
  9 10  2  0
 11  9  1  6
 11 12  1  0
 12 13  1  0
 13 14  1  0
 14 15  1  0
  8 16  1  0
 17 16  1  1
 17  2  1  0
 17  5  1  0
 15 11  1  0
M  END
>  <distance_score>  (164) 
0.637167

>  <ref_pdb>  (164) 
A0926a

>  <ref_mols>  (164) 
A0926a

>  <alias>  (164) 
None

>  <original SMILES>  (164) 
O=C1NC[C@@H]2CCN(C(=O)[C@H]3CCCO3)C[C@@H]12

>  <inchikey>  (164) 
SATZTWBVFPAGRT-IVZWLZJFSA-N

>  <exports>  (164) 
['/opt/xchem-fragalysis-2/maxwin/2A_HIPPO/hippo/A71EV2A_10_recipes/Recipe_1LPVPY0_poses.sdf']

>  <original ID>  (164) 
SATZTWBVFPAGRT-IVZWLZJFSA-N

>  <energy_score>  (164) 
-27.456243

>  <tags>  (164) 
[]

>  <HIPPO ID>  (164) 
112794

>  <name>  (164) 
SATZTWBVFPAGRT-IVZWLZJFSA-N

$$$$
SATZTWBVFPAGRT-IVZWLZJFSA-N
     RDKit          3D

 17 19  0  0  0  0  0  0  0  0999 V2000
    9.0333   16.6818   19.5204 O   0  0  0  0  0  0  0  0  0  0  0  0
    9.6547   15.7364   19.9528 C   0  0  0  0  0  0  0  0  0  0  0  0
   10.8708   15.2947   19.4542 N   0  0  0  0  0  0  0  0  0  0  0  0
   11.6540   14.7899   20.5487 C   0  0  0  0  0  0  0  0  0  0  0  0
   10.8280   15.1169   21.7787 C   0  0  2  0  0  0  0  0  0  0  0  0
   11.0030   14.3174   23.0570 C   0  0  0  0  0  0  0  0  0  0  0  0
    9.9078   14.7648   24.0373 C   0  0  0  0  0  0  0  0  0  0  0  0
    8.5842   14.5637   23.4407 N   0  0  0  0  0  0  0  0  0  0  0  0
    7.8530   13.3853   23.6511 C   0  0  0  0  0  0  0  0  0  0  0  0
    7.0981   12.9081   22.8017 O   0  0  0  0  0  0  0  0  0  0  0  0
    7.9824   12.7486   25.0607 C   0  0  1  0  0  0  0  0  0  0  0  0
    7.4192   13.7216   26.1011 C   0  0  0  0  0  0  0  0  0  0  0  0
    6.2809   12.9764   26.7598 C   0  0  0  0  0  0  0  0  0  0  0  0
    5.9899   11.8623   25.7889 C   0  0  0  0  0  0  0  0  0  0  0  0
    7.2576   11.5236   25.2240 O   0  0  0  0  0  0  0  0  0  0  0  0
    8.3608   15.3298   22.1904 C   0  0  0  0  0  0  0  0  0  0  0  0
    9.4260   14.9407   21.2042 C   0  0  1  0  0  0  0  0  0  0  0  0
  1  2  2  0
  2  3  1  0
  3  4  1  0
  5  4  1  6
  5  6  1  0
  6  7  1  0
  7  8  1  0
  8  9  1  0
  9 10  2  0
 11  9  1  6
 11 12  1  0
 12 13  1  0
 13 14  1  0
 14 15  1  0
  8 16  1  0
 17 16  1  1
 17  2  1  0
 17  5  1  0
 15 11  1  0
M  END
>  <distance_score>  (165) 
0.612385

>  <ref_pdb>  (165) 
A0926a

>  <ref_mols>  (165) 
A0926a

>  <alias>  (165) 
None

>  <original SMILES>  (165) 
O=C1NC[C@@H]2CCN(C(=O)[C@H]3CCCO3)C[C@@H]12

>  <inchikey>  (165) 
SATZTWBVFPAGRT-IVZWLZJFSA-N

>  <exports>  (165) 
['/opt/xchem-fragalysis-2/maxwin/2A_HIPPO/hippo/A71EV2A_10_recipes/Recipe_1LPVPY0_poses.sdf']

>  <original ID>  (165) 
SATZTWBVFPAGRT-IVZWLZJFSA-N

>  <energy_score>  (165) 
-26.05306

>  <tags>  (165) 
[]

>  <HIPPO ID>  (165) 
112795

>  <name>  (165) 
SATZTWBVFPAGRT-IVZWLZJFSA-N

$$$$
OWRBCBDHUVBTFO-GUBZILKMSA-N
     RDKit          3D

 17 19  0  0  0  0  0  0  0  0999 V2000
    9.0548   16.9790   19.3800 O   0  0  0  0  0  0  0  0  0  0  0  0
    9.6651   16.1065   19.9665 C   0  0  0  0  0  0  0  0  0  0  0  0
   10.5800   15.2591   19.3948 N   0  0  0  0  0  0  0  0  0  0  0  0
   11.5123   14.7932   20.3722 C   0  0  0  0  0  0  0  0  0  0  0  0
   11.0777   15.4096   21.7006 C   0  0  2  0  0  0  0  0  0  0  0  0
   11.2235   14.4987   22.9224 C   0  0  0  0  0  0  0  0  0  0  0  0
   10.0376   14.6598   23.8657 C   0  0  0  0  0  0  0  0  0  0  0  0
    8.8272   14.2325   23.1763 N   0  0  0  0  0  0  0  0  0  0  0  0
    8.0012   13.1886   23.5880 C   0  0  0  0  0  0  0  0  0  0  0  0
    7.0976   12.7635   22.8588 O   0  0  0  0  0  0  0  0  0  0  0  0
    8.2555   12.5778   24.9958 C   0  0  2  0  0  0  0  0  0  0  0  0
    7.4282   11.3701   25.2704 C   0  0  0  0  0  0  0  0  0  0  0  0
    6.4044   11.7000   26.0569 C   0  0  0  0  0  0  0  0  0  0  0  0
    6.5006   13.1402   26.3978 C   0  0  0  0  0  0  0  0  0  0  0  0
    7.8420   13.5103   26.0146 O   0  0  0  0  0  0  0  0  0  0  0  0
    8.6204   14.7756   21.8261 C   0  0  0  0  0  0  0  0  0  0  0  0
    9.6295   15.8486   21.4450 C   0  0  2  0  0  0  0  0  0  0  0  0
  1  2  2  0
  2  3  1  0
  3  4  1  0
  5  4  1  6
  5  6  1  0
  6  7  1  0
  7  8  1  0
  8  9  1  0
  9 10  2  0
 11  9  1  6
 11 12  1  0
 12 13  2  0
 13 14  1  0
 14 15  1  0
  8 16  1  0
 17 16  1  6
 17  2  1  0
 17  5  1  0
 15 11  1  0
M  END
>  <distance_score>  (166) 
0.61407

>  <ref_pdb>  (166) 
A0926a

>  <ref_mols>  (166) 
A0926a

>  <alias>  (166) 
None

>  <original SMILES>  (166) 
O=C1NC[C@@H]2CCN(C(=O)[C@@H]3C=CCO3)C[C@H]12

>  <inchikey>  (166) 
OWRBCBDHUVBTFO-GUBZILKMSA-N

>  <exports>  (166) 
['/opt/xchem-fragalysis-2/maxwin/2A_HIPPO/hippo/A71EV2A_10_recipes/Recipe_1LPVPY0_poses.sdf']

>  <original ID>  (166) 
OWRBCBDHUVBTFO-GUBZILKMSA-N

>  <energy_score>  (166) 
-35.498888

>  <tags>  (166) 
[]

>  <HIPPO ID>  (166) 
112922

>  <name>  (166) 
OWRBCBDHUVBTFO-GUBZILKMSA-N

$$$$
OWRBCBDHUVBTFO-GUBZILKMSA-N
     RDKit          3D

 17 19  0  0  0  0  0  0  0  0999 V2000
    9.0609   16.9759   19.3733 O   0  0  0  0  0  0  0  0  0  0  0  0
    9.6679   16.1035   19.9641 C   0  0  0  0  0  0  0  0  0  0  0  0
   10.5795   15.2498   19.3968 N   0  0  0  0  0  0  0  0  0  0  0  0
   11.5112   14.7845   20.3756 C   0  0  0  0  0  0  0  0  0  0  0  0
   11.0782   15.4075   21.7017 C   0  0  2  0  0  0  0  0  0  0  0  0
   11.2200   14.5008   22.9274 C   0  0  0  0  0  0  0  0  0  0  0  0
   10.0332   14.6695   23.8683 C   0  0  0  0  0  0  0  0  0  0  0  0
    8.8238   14.2405   23.1778 N   0  0  0  0  0  0  0  0  0  0  0  0
    7.9987   13.1946   23.5872 C   0  0  0  0  0  0  0  0  0  0  0  0
    7.0964   12.7707   22.8556 O   0  0  0  0  0  0  0  0  0  0  0  0
    8.2529   12.5806   24.9938 C   0  0  2  0  0  0  0  0  0  0  0  0
    7.4380   11.3632   25.2600 C   0  0  0  0  0  0  0  0  0  0  0  0
    6.4085   11.6784   26.0449 C   0  0  0  0  0  0  0  0  0  0  0  0
    6.4879   13.1175   26.3934 C   0  0  0  0  0  0  0  0  0  0  0  0
    7.8265   13.5045   26.0152 O   0  0  0  0  0  0  0  0  0  0  0  0
    8.6179   14.7837   21.8278 C   0  0  0  0  0  0  0  0  0  0  0  0
    9.6318   15.8516   21.4438 C   0  0  2  0  0  0  0  0  0  0  0  0
  1  2  2  0
  2  3  1  0
  3  4  1  0
  5  4  1  6
  5  6  1  0
  6  7  1  0
  7  8  1  0
  8  9  1  0
  9 10  2  0
 11  9  1  6
 11 12  1  0
 12 13  2  0
 13 14  1  0
 14 15  1  0
  8 16  1  0
 17 16  1  6
 17  2  1  0
 17  5  1  0
 15 11  1  0
M  END
>  <distance_score>  (167) 
0.610704

>  <ref_pdb>  (167) 
A0926a

>  <ref_mols>  (167) 
A0926a

>  <alias>  (167) 
None

>  <original SMILES>  (167) 
O=C1NC[C@@H]2CCN(C(=O)[C@@H]3C=CCO3)C[C@H]12

>  <inchikey>  (167) 
OWRBCBDHUVBTFO-GUBZILKMSA-N

>  <exports>  (167) 
['/opt/xchem-fragalysis-2/maxwin/2A_HIPPO/hippo/A71EV2A_10_recipes/Recipe_1LPVPY0_poses.sdf']

>  <original ID>  (167) 
OWRBCBDHUVBTFO-GUBZILKMSA-N

>  <energy_score>  (167) 
-34.545457

>  <tags>  (167) 
[]

>  <HIPPO ID>  (167) 
112923

>  <name>  (167) 
OWRBCBDHUVBTFO-GUBZILKMSA-N

$$$$
OWRBCBDHUVBTFO-LPEHRKFASA-N
     RDKit          3D

 17 19  0  0  0  0  0  0  0  0999 V2000
    9.0496   17.0056   19.4200 O   0  0  0  0  0  0  0  0  0  0  0  0
    9.6600   16.1186   19.9845 C   0  0  0  0  0  0  0  0  0  0  0  0
   10.5719   15.2834   19.3918 N   0  0  0  0  0  0  0  0  0  0  0  0
   11.5063   14.7919   20.3532 C   0  0  0  0  0  0  0  0  0  0  0  0
   11.0739   15.3731   21.6993 C   0  0  2  0  0  0  0  0  0  0  0  0
   11.2114   14.4228   22.8906 C   0  0  0  0  0  0  0  0  0  0  0  0
   10.0364   14.5619   23.8496 C   0  0  0  0  0  0  0  0  0  0  0  0
    8.7997   14.2017   23.1680 N   0  0  0  0  0  0  0  0  0  0  0  0
    7.9119   13.2063   23.5799 C   0  0  0  0  0  0  0  0  0  0  0  0
    6.9958   12.8222   22.8436 O   0  0  0  0  0  0  0  0  0  0  0  0
    8.0983   12.5944   24.9968 C   0  0  1  0  0  0  0  0  0  0  0  0
    7.6365   13.5670   26.0319 C   0  0  0  0  0  0  0  0  0  0  0  0
    6.4786   13.1565   26.5492 C   0  0  0  0  0  0  0  0  0  0  0  0
    6.0793   11.8869   25.8992 C   0  0  0  0  0  0  0  0  0  0  0  0
    7.2675   11.4380   25.2281 O   0  0  0  0  0  0  0  0  0  0  0  0
    8.6164   14.7506   21.8158 C   0  0  0  0  0  0  0  0  0  0  0  0
    9.6291   15.8275   21.4575 C   0  0  2  0  0  0  0  0  0  0  0  0
  1  2  2  0
  2  3  1  0
  3  4  1  0
  5  4  1  6
  5  6  1  0
  6  7  1  0
  7  8  1  0
  8  9  1  0
  9 10  2  0
 11  9  1  6
 11 12  1  0
 12 13  2  0
 13 14  1  0
 14 15  1  0
  8 16  1  0
 17 16  1  6
 17  2  1  0
 17  5  1  0
 15 11  1  0
M  END
>  <distance_score>  (168) 
0.646895

>  <ref_pdb>  (168) 
A0926a

>  <ref_mols>  (168) 
A0926a

>  <alias>  (168) 
None

>  <original SMILES>  (168) 
O=C1NC[C@@H]2CCN(C(=O)[C@H]3C=CCO3)C[C@H]12

>  <inchikey>  (168) 
OWRBCBDHUVBTFO-LPEHRKFASA-N

>  <exports>  (168) 
['/opt/xchem-fragalysis-2/maxwin/2A_HIPPO/hippo/A71EV2A_10_recipes/Recipe_1LPVPY0_poses.sdf']

>  <original ID>  (168) 
OWRBCBDHUVBTFO-LPEHRKFASA-N

>  <energy_score>  (168) 
-36.886127

>  <tags>  (168) 
[]

>  <HIPPO ID>  (168) 
112924

>  <name>  (168) 
OWRBCBDHUVBTFO-LPEHRKFASA-N

$$$$
OWRBCBDHUVBTFO-LPEHRKFASA-N
     RDKit          3D

 17 19  0  0  0  0  0  0  0  0999 V2000
    9.0530   16.9958   19.4148 O   0  0  0  0  0  0  0  0  0  0  0  0
    9.6640   16.1125   19.9844 C   0  0  0  0  0  0  0  0  0  0  0  0
   10.5743   15.2722   19.3950 N   0  0  0  0  0  0  0  0  0  0  0  0
   11.5104   14.7890   20.3598 C   0  0  0  0  0  0  0  0  0  0  0  0
   11.0769   15.3756   21.7028 C   0  0  2  0  0  0  0  0  0  0  0  0
   11.2145   14.4304   22.8981 C   0  0  0  0  0  0  0  0  0  0  0  0
   10.0374   14.5716   23.8541 C   0  0  0  0  0  0  0  0  0  0  0  0
    8.8041   14.2028   23.1696 N   0  0  0  0  0  0  0  0  0  0  0  0
    7.9202   13.2045   23.5804 C   0  0  0  0  0  0  0  0  0  0  0  0
    7.0070   12.8161   22.8425 O   0  0  0  0  0  0  0  0  0  0  0  0
    8.1093   12.5914   24.9962 C   0  0  1  0  0  0  0  0  0  0  0  0
    7.6487   13.5610   26.0341 C   0  0  0  0  0  0  0  0  0  0  0  0
    6.4911   13.1497   26.5511 C   0  0  0  0  0  0  0  0  0  0  0  0
    6.0907   11.8819   25.8983 C   0  0  0  0  0  0  0  0  0  0  0  0
    7.2781   11.4341   25.2246 O   0  0  0  0  0  0  0  0  0  0  0  0
    8.6182   14.7545   21.8195 C   0  0  0  0  0  0  0  0  0  0  0  0
    9.6324   15.8288   21.4585 C   0  0  2  0  0  0  0  0  0  0  0  0
  1  2  2  0
  2  3  1  0
  3  4  1  0
  5  4  1  6
  5  6  1  0
  6  7  1  0
  7  8  1  0
  8  9  1  0
  9 10  2  0
 11  9  1  6
 11 12  1  0
 12 13  2  0
 13 14  1  0
 14 15  1  0
  8 16  1  0
 17 16  1  6
 17  2  1  0
 17  5  1  0
 15 11  1  0
M  END
>  <distance_score>  (169) 
0.641525

>  <ref_pdb>  (169) 
A0926a

>  <ref_mols>  (169) 
A0926a

>  <alias>  (169) 
None

>  <original SMILES>  (169) 
O=C1NC[C@@H]2CCN(C(=O)[C@H]3C=CCO3)C[C@H]12

>  <inchikey>  (169) 
OWRBCBDHUVBTFO-LPEHRKFASA-N

>  <exports>  (169) 
['/opt/xchem-fragalysis-2/maxwin/2A_HIPPO/hippo/A71EV2A_10_recipes/Recipe_1LPVPY0_poses.sdf']

>  <original ID>  (169) 
OWRBCBDHUVBTFO-LPEHRKFASA-N

>  <energy_score>  (169) 
-30.438824

>  <tags>  (169) 
[]

>  <HIPPO ID>  (169) 
112925

>  <name>  (169) 
OWRBCBDHUVBTFO-LPEHRKFASA-N

$$$$
OWRBCBDHUVBTFO-AEJSXWLSSA-N
     RDKit          3D

 17 19  0  0  0  0  0  0  0  0999 V2000
    9.0287   16.6725   19.5341 O   0  0  0  0  0  0  0  0  0  0  0  0
    9.6514   15.7269   19.9639 C   0  0  0  0  0  0  0  0  0  0  0  0
   10.8618   15.2792   19.4569 N   0  0  0  0  0  0  0  0  0  0  0  0
   11.6539   14.7760   20.5469 C   0  0  0  0  0  0  0  0  0  0  0  0
   10.8390   15.1160   21.7821 C   0  0  2  0  0  0  0  0  0  0  0  0
   11.0296   14.3361   23.0715 C   0  0  0  0  0  0  0  0  0  0  0  0
    9.9327   14.7846   24.0510 C   0  0  0  0  0  0  0  0  0  0  0  0
    8.6165   14.5468   23.4565 N   0  0  0  0  0  0  0  0  0  0  0  0
    7.9417   13.3305   23.6500 C   0  0  0  0  0  0  0  0  0  0  0  0
    7.1533   12.8717   22.8182 O   0  0  0  0  0  0  0  0  0  0  0  0
    8.2261   12.5966   24.9966 C   0  0  2  0  0  0  0  0  0  0  0  0
    7.4522   11.3409   25.1824 C   0  0  0  0  0  0  0  0  0  0  0  0
    6.4213   11.5666   25.9961 C   0  0  0  0  0  0  0  0  0  0  0  0
    6.4561   12.9797   26.4416 C   0  0  0  0  0  0  0  0  0  0  0  0
    7.7833   13.4259   26.0931 O   0  0  0  0  0  0  0  0  0  0  0  0
    8.3692   15.3155   22.2135 C   0  0  0  0  0  0  0  0  0  0  0  0
    9.4316   14.9345   21.2192 C   0  0  1  0  0  0  0  0  0  0  0  0
  1  2  2  0
  2  3  1  0
  3  4  1  0
  5  4  1  6
  5  6  1  0
  6  7  1  0
  7  8  1  0
  8  9  1  0
  9 10  2  0
 11  9  1  6
 11 12  1  0
 12 13  2  0
 13 14  1  0
 14 15  1  0
  8 16  1  0
 17 16  1  1
 17  2  1  0
 17  5  1  0
 15 11  1  0
M  END
>  <distance_score>  (170) 
0.547402

>  <ref_pdb>  (170) 
A0926a

>  <ref_mols>  (170) 
A0926a

>  <alias>  (170) 
None

>  <original SMILES>  (170) 
O=C1NC[C@@H]2CCN(C(=O)[C@@H]3C=CCO3)C[C@@H]12

>  <inchikey>  (170) 
OWRBCBDHUVBTFO-AEJSXWLSSA-N

>  <exports>  (170) 
['/opt/xchem-fragalysis-2/maxwin/2A_HIPPO/hippo/A71EV2A_10_recipes/Recipe_1LPVPY0_poses.sdf']

>  <original ID>  (170) 
OWRBCBDHUVBTFO-AEJSXWLSSA-N

>  <energy_score>  (170) 
-36.549113

>  <tags>  (170) 
[]

>  <HIPPO ID>  (170) 
112926

>  <name>  (170) 
OWRBCBDHUVBTFO-AEJSXWLSSA-N

$$$$
OWRBCBDHUVBTFO-AEJSXWLSSA-N
     RDKit          3D

 17 19  0  0  0  0  0  0  0  0999 V2000
    9.0267   16.6736   19.5402 O   0  0  0  0  0  0  0  0  0  0  0  0
    9.6507   15.7316   19.9758 C   0  0  0  0  0  0  0  0  0  0  0  0
   10.8680   15.2932   19.4769 N   0  0  0  0  0  0  0  0  0  0  0  0
   11.6550   14.7948   20.5723 C   0  0  0  0  0  0  0  0  0  0  0  0
   10.8300   15.1276   21.8016 C   0  0  2  0  0  0  0  0  0  0  0  0
   11.0199   14.3458   23.0899 C   0  0  0  0  0  0  0  0  0  0  0  0
    9.9172   14.7889   24.0649 C   0  0  0  0  0  0  0  0  0  0  0  0
    8.6048   14.5446   23.4643 N   0  0  0  0  0  0  0  0  0  0  0  0
    7.9335   13.3259   23.6558 C   0  0  0  0  0  0  0  0  0  0  0  0
    7.1452   12.8684   22.8232 O   0  0  0  0  0  0  0  0  0  0  0  0
    8.2226   12.5873   24.9989 C   0  0  2  0  0  0  0  0  0  0  0  0
    7.4690   11.3182   25.1737 C   0  0  0  0  0  0  0  0  0  0  0  0
    6.4394   11.5174   25.9955 C   0  0  0  0  0  0  0  0  0  0  0  0
    6.4536   12.9246   26.4590 C   0  0  0  0  0  0  0  0  0  0  0  0
    7.7664   13.4031   26.1001 O   0  0  0  0  0  0  0  0  0  0  0  0
    8.3582   15.3121   22.2199 C   0  0  0  0  0  0  0  0  0  0  0  0
    9.4271   14.9375   21.2298 C   0  0  1  0  0  0  0  0  0  0  0  0
  1  2  2  0
  2  3  1  0
  3  4  1  0
  5  4  1  6
  5  6  1  0
  6  7  1  0
  7  8  1  0
  8  9  1  0
  9 10  2  0
 11  9  1  6
 11 12  1  0
 12 13  2  0
 13 14  1  0
 14 15  1  0
  8 16  1  0
 17 16  1  1
 17  2  1  0
 17  5  1  0
 15 11  1  0
M  END
>  <distance_score>  (171) 
0.548527

>  <ref_pdb>  (171) 
A0926a

>  <ref_mols>  (171) 
A0926a

>  <alias>  (171) 
None

>  <original SMILES>  (171) 
O=C1NC[C@@H]2CCN(C(=O)[C@@H]3C=CCO3)C[C@@H]12

>  <inchikey>  (171) 
OWRBCBDHUVBTFO-AEJSXWLSSA-N

>  <exports>  (171) 
['/opt/xchem-fragalysis-2/maxwin/2A_HIPPO/hippo/A71EV2A_10_recipes/Recipe_1LPVPY0_poses.sdf']

>  <original ID>  (171) 
OWRBCBDHUVBTFO-AEJSXWLSSA-N

>  <energy_score>  (171) 
-24.705299

>  <tags>  (171) 
[]

>  <HIPPO ID>  (171) 
112927

>  <name>  (171) 
OWRBCBDHUVBTFO-AEJSXWLSSA-N

$$$$
OWRBCBDHUVBTFO-IVZWLZJFSA-N
     RDKit          3D

 17 19  0  0  0  0  0  0  0  0999 V2000
    9.0311   16.7036   19.5517 O   0  0  0  0  0  0  0  0  0  0  0  0
    9.6527   15.7484   19.9614 C   0  0  0  0  0  0  0  0  0  0  0  0
   10.8524   15.2947   19.4355 N   0  0  0  0  0  0  0  0  0  0  0  0
   11.6512   14.7655   20.5079 C   0  0  0  0  0  0  0  0  0  0  0  0
   10.8492   15.0823   21.7583 C   0  0  2  0  0  0  0  0  0  0  0  0
   11.0306   14.2539   23.0171 C   0  0  0  0  0  0  0  0  0  0  0  0
    9.9526   14.6799   24.0244 C   0  0  0  0  0  0  0  0  0  0  0  0
    8.6188   14.5202   23.4395 N   0  0  0  0  0  0  0  0  0  0  0  0
    7.8616   13.3524   23.6269 C   0  0  0  0  0  0  0  0  0  0  0  0
    7.0572   12.9435   22.7840 O   0  0  0  0  0  0  0  0  0  0  0  0
    8.0547   12.6024   24.9792 C   0  0  1  0  0  0  0  0  0  0  0  0
    7.5891   13.4671   26.1062 C   0  0  0  0  0  0  0  0  0  0  0  0
    6.4490   12.9887   26.6020 C   0  0  0  0  0  0  0  0  0  0  0  0
    6.0642   11.7761   25.8458 C   0  0  0  0  0  0  0  0  0  0  0  0
    7.2440   11.4194   25.1054 O   0  0  0  0  0  0  0  0  0  0  0  0
    8.3926   15.3273   22.2160 C   0  0  0  0  0  0  0  0  0  0  0  0
    9.4350   14.9388   21.2050 C   0  0  1  0  0  0  0  0  0  0  0  0
  1  2  2  0
  2  3  1  0
  3  4  1  0
  5  4  1  6
  5  6  1  0
  6  7  1  0
  7  8  1  0
  8  9  1  0
  9 10  2  0
 11  9  1  6
 11 12  1  0
 12 13  2  0
 13 14  1  0
 14 15  1  0
  8 16  1  0
 17 16  1  1
 17  2  1  0
 17  5  1  0
 15 11  1  0
M  END
>  <distance_score>  (172) 
0.589268

>  <ref_pdb>  (172) 
A0926a

>  <ref_mols>  (172) 
A0926a

>  <alias>  (172) 
None

>  <original SMILES>  (172) 
O=C1NC[C@@H]2CCN(C(=O)[C@H]3C=CCO3)C[C@@H]12

>  <inchikey>  (172) 
OWRBCBDHUVBTFO-IVZWLZJFSA-N

>  <exports>  (172) 
['/opt/xchem-fragalysis-2/maxwin/2A_HIPPO/hippo/A71EV2A_10_recipes/Recipe_1LPVPY0_poses.sdf']

>  <original ID>  (172) 
OWRBCBDHUVBTFO-IVZWLZJFSA-N

>  <energy_score>  (172) 
-27.913556

>  <tags>  (172) 
[]

>  <HIPPO ID>  (172) 
112928

>  <name>  (172) 
OWRBCBDHUVBTFO-IVZWLZJFSA-N

$$$$
OWRBCBDHUVBTFO-IVZWLZJFSA-N
     RDKit          3D

 17 19  0  0  0  0  0  0  0  0999 V2000
    9.0477   16.7018   19.4738 O   0  0  0  0  0  0  0  0  0  0  0  0
    9.6546   15.7479   19.9089 C   0  0  0  0  0  0  0  0  0  0  0  0
   10.8486   15.2661   19.3937 N   0  0  0  0  0  0  0  0  0  0  0  0
   11.6382   14.7448   20.4769 C   0  0  0  0  0  0  0  0  0  0  0  0
   10.8389   15.0934   21.7194 C   0  0  2  0  0  0  0  0  0  0  0  0
   11.0017   14.2755   22.9857 C   0  0  0  0  0  0  0  0  0  0  0  0
    9.9355   14.7424   23.9869 C   0  0  0  0  0  0  0  0  0  0  0  0
    8.5905   14.6148   23.4096 N   0  0  0  0  0  0  0  0  0  0  0  0
    7.8175   13.4595   23.6127 C   0  0  0  0  0  0  0  0  0  0  0  0
    7.0057   13.0369   22.7849 O   0  0  0  0  0  0  0  0  0  0  0  0
    8.0487   12.7343   24.9594 C   0  0  1  0  0  0  0  0  0  0  0  0
    6.8793   11.9814   25.4783 C   0  0  0  0  0  0  0  0  0  0  0  0
    7.1520   10.6810   25.4881 C   0  0  0  0  0  0  0  0  0  0  0  0
    8.4792   10.4526   24.8742 C   0  0  0  0  0  0  0  0  0  0  0  0
    9.0846   11.7508   24.7972 O   0  0  0  0  0  0  0  0  0  0  0  0
    8.3862   15.3994   22.1701 C   0  0  0  0  0  0  0  0  0  0  0  0
    9.4222   14.9678   21.1687 C   0  0  1  0  0  0  0  0  0  0  0  0
  1  2  2  0
  2  3  1  0
  3  4  1  0
  5  4  1  6
  5  6  1  0
  6  7  1  0
  7  8  1  0
  8  9  1  0
  9 10  2  0
 11  9  1  6
 11 12  1  0
 12 13  2  0
 13 14  1  0
 14 15  1  0
  8 16  1  0
 17 16  1  1
 17  2  1  0
 17  5  1  0
 15 11  1  0
M  END
>  <distance_score>  (173) 
0.720877

>  <ref_pdb>  (173) 
A0926a

>  <ref_mols>  (173) 
A0926a

>  <alias>  (173) 
None

>  <original SMILES>  (173) 
O=C1NC[C@@H]2CCN(C(=O)[C@H]3C=CCO3)C[C@@H]12

>  <inchikey>  (173) 
OWRBCBDHUVBTFO-IVZWLZJFSA-N

>  <exports>  (173) 
['/opt/xchem-fragalysis-2/maxwin/2A_HIPPO/hippo/A71EV2A_10_recipes/Recipe_1LPVPY0_poses.sdf']

>  <original ID>  (173) 
OWRBCBDHUVBTFO-IVZWLZJFSA-N

>  <energy_score>  (173) 
-29.50664

>  <tags>  (173) 
[]

>  <HIPPO ID>  (173) 
112929

>  <name>  (173) 
OWRBCBDHUVBTFO-IVZWLZJFSA-N

$$$$
XZJXCESWBMDSBO-UHFFFAOYSA-N
     RDKit          3D

 13 13  0  0  0  0  0  0  0  0999 V2000
    5.6348   11.9841   26.8887 C   0  0  0  0  0  0  0  0  0  0  0  0
    6.8779   12.2791   26.0735 C   0  0  0  0  0  0  0  0  0  0  0  0
    7.4485   11.0425   25.6678 O   0  0  0  0  0  0  0  0  0  0  0  0
    8.5413   11.1018   24.8525 C   0  0  0  0  0  0  0  0  0  0  0  0
    9.3029   12.2317   24.5622 C   0  0  0  0  0  0  0  0  0  0  0  0
   10.3776   12.1454   23.6686 C   0  0  0  0  0  0  0  0  0  0  0  0
   10.7005   10.9210   23.0784 C   0  0  0  0  0  0  0  0  0  0  0  0
   11.7583   10.7721   22.0497 C   0  0  0  0  0  0  0  0  0  0  0  0
   11.9065    9.6622   21.5378 O   0  0  0  0  0  0  0  0  0  0  0  0
   12.5784   11.9880   21.6267 C   0  0  0  0  0  0  0  0  0  0  0  0
   13.6510   11.6175   20.5939 C   0  0  0  0  0  0  0  0  0  0  0  0
    9.9661    9.7816   23.4103 C   0  0  0  0  0  0  0  0  0  0  0  0
    8.8917    9.8815   24.2827 C   0  0  0  0  0  0  0  0  0  0  0  0
  1  2  1  0
  2  3  1  0
  3  4  1  0
  4  5  2  0
  5  6  1  0
  6  7  2  0
  7  8  1  0
  8  9  2  0
  8 10  1  0
 10 11  1  0
  7 12  1  0
 12 13  2  0
 13  4  1  0
M  END
>  <distance_score>  (174) 
0.364582

>  <ref_pdb>  (174) 
A1775a

>  <ref_mols>  (174) 
A1775a

>  <alias>  (174) 
None

>  <original SMILES>  (174) 
CCOc1ccc(C(=O)CC)cc1

>  <inchikey>  (174) 
XZJXCESWBMDSBO-UHFFFAOYSA-N

>  <exports>  (174) 
['/opt/xchem-fragalysis-2/maxwin/2A_HIPPO/hippo/A71EV2A_10_recipes/Recipe_1LPUPHX_poses.sdf', '/opt/xchem-fragalysis-2/maxwin/2A_HIPPO/hippo/A71EV2A_10_recipes/Recipe_1LPVPY0_poses.sdf']

>  <original ID>  (174) 
XZJXCESWBMDSBO-UHFFFAOYSA-N

>  <energy_score>  (174) 
-14.951008

>  <tags>  (174) 
['Syndirella scaffold']

>  <HIPPO ID>  (174) 
118487

>  <name>  (174) 
XZJXCESWBMDSBO-UHFFFAOYSA-N

$$$$
ZYHPIBXHGSZGKQ-UHFFFAOYSA-N
     RDKit          3D

 14 14  0  0  0  0  0  0  0  0999 V2000
    5.6426   11.7985   26.7553 C   0  0  0  0  0  0  0  0  0  0  0  0
    6.9281   12.2185   26.0692 C   0  0  0  0  0  0  0  0  0  0  0  0
    7.6496   11.0468   25.7190 O   0  0  0  0  0  0  0  0  0  0  0  0
    8.7006   11.1370   24.8521 C   0  0  0  0  0  0  0  0  0  0  0  0
    8.9679    9.9128   24.2306 C   0  0  0  0  0  0  0  0  0  0  0  0
   10.0057    9.7720   23.3165 C   0  0  0  0  0  0  0  0  0  0  0  0
   10.7911   10.8748   22.9887 C   0  0  0  0  0  0  0  0  0  0  0  0
   11.8372   10.7213   21.9550 C   0  0  0  0  0  0  0  0  0  0  0  0
   11.9699    9.6110   21.4453 O   0  0  0  0  0  0  0  0  0  0  0  0
   12.6613   11.9382   21.5317 C   0  0  0  0  0  0  0  0  0  0  0  0
   13.7423   11.5837   20.5112 C   0  0  0  0  0  0  0  0  0  0  0  0
   10.5572   12.0932   23.6125 C   0  0  0  0  0  0  0  0  0  0  0  0
    9.5335   12.2203   24.5544 C   0  0  0  0  0  0  0  0  0  0  0  0
    9.4825   13.7577   25.3121 Cl  0  0  0  0  0  0  0  0  0  0  0  0
  1  2  1  0
  2  3  1  0
  3  4  1  0
  4  5  2  0
  5  6  1  0
  6  7  2  0
  7  8  1  0
  8  9  2  0
  8 10  1  0
 10 11  1  0
  7 12  1  0
 12 13  2  0
 13 14  1  0
 13  4  1  0
M  END
>  <distance_score>  (175) 
0.34243

>  <ref_pdb>  (175) 
A1775a

>  <ref_mols>  (175) 
A1775a

>  <alias>  (175) 
None

>  <original SMILES>  (175) 
CCOc1ccc(C(=O)CC)cc1Cl

>  <inchikey>  (175) 
ZYHPIBXHGSZGKQ-UHFFFAOYSA-N

>  <exports>  (175) 
['/opt/xchem-fragalysis-2/maxwin/2A_HIPPO/hippo/A71EV2A_10_recipes/Recipe_1LPVPY0_poses.sdf']

>  <original ID>  (175) 
ZYHPIBXHGSZGKQ-UHFFFAOYSA-N

>  <energy_score>  (175) 
-1.846383

>  <tags>  (175) 
[]

>  <HIPPO ID>  (175) 
118494

>  <name>  (175) 
ZYHPIBXHGSZGKQ-UHFFFAOYSA-N

$$$$
PPUYXFRSZWNWAM-UHFFFAOYSA-N
     RDKit          3D

 14 15  0  0  0  0  0  0  0  0999 V2000
   12.1078    9.9757   21.4584 O   0  0  0  0  0  0  0  0  0  0  0  0
   11.7189   10.9145   22.1312 C   0  0  0  0  0  0  0  0  0  0  0  0
   12.1848   12.3561   22.0907 C   0  0  0  0  0  0  0  0  0  0  0  0
   11.4638   13.0350   23.2503 C   0  0  0  0  0  0  0  0  0  0  0  0
   10.4522   12.0284   23.7026 C   0  0  0  0  0  0  0  0  0  0  0  0
    9.4284   12.1900   24.6235 C   0  0  0  0  0  0  0  0  0  0  0  0
    8.6086   11.0900   24.8970 C   0  0  0  0  0  0  0  0  0  0  0  0
    7.5690   11.1192   25.7908 O   0  0  0  0  0  0  0  0  0  0  0  0
    6.6749   12.2139   25.5807 C   0  0  0  0  0  0  0  0  0  0  0  0
    5.4112   12.0334   26.4112 C   0  0  0  0  0  0  0  0  0  0  0  0
    5.6278   12.6877   28.0578 Cl  0  0  0  0  0  0  0  0  0  0  0  0
    8.8604    9.8451   24.2991 C   0  0  0  0  0  0  0  0  0  0  0  0
    9.8944    9.6784   23.3875 C   0  0  0  0  0  0  0  0  0  0  0  0
   10.6518   10.7912   23.1028 C   0  0  0  0  0  0  0  0  0  0  0  0
  1  2  2  0
  2  3  1  0
  3  4  1  0
  4  5  1  0
  5  6  2  0
  6  7  1  0
  7  8  1  0
  8  9  1  0
  9 10  1  0
 10 11  1  0
  7 12  2  0
 12 13  1  0
 13 14  2  0
 14  2  1  0
 14  5  1  0
M  END
>  <distance_score>  (176) 
1.151875

>  <ref_pdb>  (176) 
A1775a

>  <ref_mols>  (176) 
A1775a

>  <alias>  (176) 
None

>  <original SMILES>  (176) 
O=C1CCc2cc(OCCCl)ccc21

>  <inchikey>  (176) 
PPUYXFRSZWNWAM-UHFFFAOYSA-N

>  <exports>  (176) 
['/opt/xchem-fragalysis-2/maxwin/2A_HIPPO/hippo/A71EV2A_10_recipes/Recipe_1LPVPY0_poses.sdf']

>  <original ID>  (176) 
PPUYXFRSZWNWAM-UHFFFAOYSA-N

>  <energy_score>  (176) 
-11.638063

>  <tags>  (176) 
[]

>  <HIPPO ID>  (176) 
118506

>  <name>  (176) 
PPUYXFRSZWNWAM-UHFFFAOYSA-N

$$$$
VILHJYWZPMKMMF-UHFFFAOYSA-N
     RDKit          3D

 14 14  0  0  0  0  0  0  0  0999 V2000
   13.6807   11.6089   20.5674 C   0  0  0  0  0  0  0  0  0  0  0  0
   12.6066   11.9775   21.5967 C   0  0  0  0  0  0  0  0  0  0  0  0
   11.7859   10.7630   22.0235 C   0  0  0  0  0  0  0  0  0  0  0  0
   11.9301    9.6512   21.5164 O   0  0  0  0  0  0  0  0  0  0  0  0
   10.7340   10.9168   23.0556 C   0  0  0  0  0  0  0  0  0  0  0  0
   10.4393   12.1418   23.6560 C   0  0  0  0  0  0  0  0  0  0  0  0
    9.3768   12.2394   24.5590 C   0  0  0  0  0  0  0  0  0  0  0  0
    8.5980   11.1199   24.8504 C   0  0  0  0  0  0  0  0  0  0  0  0
    7.5090   11.0802   25.6737 O   0  0  0  0  0  0  0  0  0  0  0  0
    7.1587   12.2997   26.3167 C   0  0  0  0  0  0  0  0  0  0  0  0
    5.9612   12.0762   27.2223 C   0  0  0  0  0  0  0  0  0  0  0  0
    4.4659   12.3969   26.3362 Cl  0  0  0  0  0  0  0  0  0  0  0  0
    8.9137    9.8988   24.2630 C   0  0  0  0  0  0  0  0  0  0  0  0
    9.9800    9.7877   23.3817 C   0  0  0  0  0  0  0  0  0  0  0  0
  1  2  1  0
  2  3  1  0
  3  4  2  0
  3  5  1  0
  5  6  2  0
  6  7  1  0
  7  8  2  0
  8  9  1  0
  9 10  1  0
 10 11  1  0
 11 12  1  0
  8 13  1  0
 13 14  2  0
 14  5  1  0
M  END
>  <distance_score>  (177) 
0.403356

>  <ref_pdb>  (177) 
A1775a

>  <ref_mols>  (177) 
A1775a

>  <alias>  (177) 
None

>  <original SMILES>  (177) 
CCC(=O)c1ccc(OCCCl)cc1

>  <inchikey>  (177) 
VILHJYWZPMKMMF-UHFFFAOYSA-N

>  <exports>  (177) 
['/opt/xchem-fragalysis-2/maxwin/2A_HIPPO/hippo/A71EV2A_10_recipes/Recipe_1LPVPY0_poses.sdf']

>  <original ID>  (177) 
VILHJYWZPMKMMF-UHFFFAOYSA-N

>  <energy_score>  (177) 
-27.069159

>  <tags>  (177) 
[]

>  <HIPPO ID>  (177) 
118507

>  <name>  (177) 
VILHJYWZPMKMMF-UHFFFAOYSA-N

$$$$
KKIXEWGIOYISMC-UHFFFAOYSA-N
     RDKit          3D

 14 14  0  0  0  0  0  0  0  0999 V2000
   13.6482   11.6107   20.5946 C   0  0  0  0  0  0  0  0  0  0  0  0
   12.5790   11.9817   21.6298 C   0  0  0  0  0  0  0  0  0  0  0  0
   11.7582   10.7671   22.0602 C   0  0  0  0  0  0  0  0  0  0  0  0
   11.8937    9.6575   21.5452 O   0  0  0  0  0  0  0  0  0  0  0  0
   10.7082   10.9218   23.0969 C   0  0  0  0  0  0  0  0  0  0  0  0
    9.9539    9.7937   23.4277 C   0  0  0  0  0  0  0  0  0  0  0  0
    8.8715    9.9107   24.2907 C   0  0  0  0  0  0  0  0  0  0  0  0
    8.5305   11.1407   24.8431 C   0  0  0  0  0  0  0  0  0  0  0  0
    7.4017   11.1285   25.6167 O   0  0  0  0  0  0  0  0  0  0  0  0
    6.7763   12.3835   25.7901 C   0  0  0  0  0  0  0  0  0  0  0  0
    5.3754   12.3175   26.3608 C   0  0  0  0  0  0  0  0  0  0  0  0
    4.7847   11.2933   26.6783 O   0  0  0  0  0  0  0  0  0  0  0  0
    9.3292   12.2529   24.5750 C   0  0  0  0  0  0  0  0  0  0  0  0
   10.4099   12.1485   23.6930 C   0  0  0  0  0  0  0  0  0  0  0  0
  1  2  1  0
  2  3  1  0
  3  4  2  0
  3  5  1  0
  5  6  2  0
  6  7  1  0
  7  8  2  0
  8  9  1  0
  9 10  1  0
 10 11  1  0
 11 12  2  0
  8 13  1  0
 13 14  2  0
 14  5  1  0
M  END
>  <distance_score>  (178) 
0.386601

>  <ref_pdb>  (178) 
A1775a

>  <ref_mols>  (178) 
A1775a

>  <alias>  (178) 
None

>  <original SMILES>  (178) 
CCC(=O)c1ccc(OCC=O)cc1

>  <inchikey>  (178) 
KKIXEWGIOYISMC-UHFFFAOYSA-N

>  <exports>  (178) 
['/opt/xchem-fragalysis-2/maxwin/2A_HIPPO/hippo/A71EV2A_10_recipes/Recipe_1LPVPY0_poses.sdf']

>  <original ID>  (178) 
KKIXEWGIOYISMC-UHFFFAOYSA-N

>  <energy_score>  (178) 
-7.364341

>  <tags>  (178) 
[]

>  <HIPPO ID>  (178) 
118508

>  <name>  (178) 
KKIXEWGIOYISMC-UHFFFAOYSA-N

$$$$
PQQSNMCRSFPZML-UHFFFAOYSA-N
     RDKit          3D

 14 15  0  0  0  0  0  0  0  0999 V2000
    5.2775   12.7248   27.5829 O   0  0  0  0  0  0  0  0  0  0  0  0
    5.6342   12.0037   26.6550 C   0  0  0  0  0  0  0  0  0  0  0  0
    6.8730   12.2652   25.8411 C   0  0  0  0  0  0  0  0  0  0  0  0
    7.4822   11.0152   25.5652 O   0  0  0  0  0  0  0  0  0  0  0  0
    8.5788   11.0431   24.7466 C   0  0  0  0  0  0  0  0  0  0  0  0
    8.9379    9.7840   24.2336 C   0  0  0  0  0  0  0  0  0  0  0  0
   10.0122    9.6282   23.3691 C   0  0  0  0  0  0  0  0  0  0  0  0
   10.6947   10.7707   23.0258 C   0  0  0  0  0  0  0  0  0  0  0  0
   10.3779   12.0290   23.5176 C   0  0  0  0  0  0  0  0  0  0  0  0
    9.3193   12.1783   24.4014 C   0  0  0  0  0  0  0  0  0  0  0  0
   11.2536   13.0955   22.9371 C   0  0  0  0  0  0  0  0  0  0  0  0
   12.2109   12.3522   22.0124 C   0  0  0  0  0  0  0  0  0  0  0  0
   11.7737   10.9041   22.0716 C   0  0  0  0  0  0  0  0  0  0  0  0
   12.1962    9.9619   21.4247 O   0  0  0  0  0  0  0  0  0  0  0  0
  1  2  2  0
  2  3  1  0
  3  4  1  0
  4  5  1  0
  5  6  2  0
  6  7  1  0
  7  8  2  0
  8  9  1  0
  9 10  2  0
  9 11  1  0
 11 12  1  0
 12 13  1  0
 13 14  2  0
 10  5  1  0
 13  8  1  0
M  END
>  <distance_score>  (179) 
1.131421

>  <ref_pdb>  (179) 
A1775a

>  <ref_mols>  (179) 
A1775a

>  <alias>  (179) 
None

>  <original SMILES>  (179) 
O=CCOc1ccc2c(c1)CCC2=O

>  <inchikey>  (179) 
PQQSNMCRSFPZML-UHFFFAOYSA-N

>  <exports>  (179) 
['/opt/xchem-fragalysis-2/maxwin/2A_HIPPO/hippo/A71EV2A_10_recipes/Recipe_1LPVPY0_poses.sdf']

>  <original ID>  (179) 
PQQSNMCRSFPZML-UHFFFAOYSA-N

>  <energy_score>  (179) 
-15.851219

>  <tags>  (179) 
[]

>  <HIPPO ID>  (179) 
118509

>  <name>  (179) 
PQQSNMCRSFPZML-UHFFFAOYSA-N

$$$$
IADFYSLRLWUKCF-UHFFFAOYSA-N
     RDKit          3D

 14 14  0  0  0  0  0  0  0  0999 V2000
   13.6439   11.6191   20.5992 C   0  0  0  0  0  0  0  0  0  0  0  0
   12.5724   11.9894   21.6337 C   0  0  0  0  0  0  0  0  0  0  0  0
   11.7543   10.7726   22.0576 C   0  0  0  0  0  0  0  0  0  0  0  0
   11.9033    9.6630   21.5455 O   0  0  0  0  0  0  0  0  0  0  0  0
   10.6968   10.9195   23.0873 C   0  0  0  0  0  0  0  0  0  0  0  0
    9.9619    9.7793   23.4142 C   0  0  0  0  0  0  0  0  0  0  0  0
    8.8812    9.8778   24.2784 C   0  0  0  0  0  0  0  0  0  0  0  0
    8.5237   11.0977   24.8446 C   0  0  0  0  0  0  0  0  0  0  0  0
    7.4119   11.0382   25.6325 O   0  0  0  0  0  0  0  0  0  0  0  0
    6.8450   12.2725   26.0614 C   0  0  0  0  0  0  0  0  0  0  0  0
    5.5205   12.0028   26.7511 C   0  0  0  0  0  0  0  0  0  0  0  0
    5.8056   11.1514   28.4815 Br  0  0  0  0  0  0  0  0  0  0  0  0
    9.2913   12.2266   24.5682 C   0  0  0  0  0  0  0  0  0  0  0  0
   10.3725   12.1419   23.6814 C   0  0  0  0  0  0  0  0  0  0  0  0
  1  2  1  0
  2  3  1  0
  3  4  2  0
  3  5  1  0
  5  6  2  0
  6  7  1  0
  7  8  2  0
  8  9  1  0
  9 10  1  0
 10 11  1  0
 11 12  1  0
  8 13  1  0
 13 14  2  0
 14  5  1  0
M  END
>  <distance_score>  (180) 
0.360834

>  <ref_pdb>  (180) 
A1775a

>  <ref_mols>  (180) 
A1775a

>  <alias>  (180) 
None

>  <original SMILES>  (180) 
CCC(=O)c1ccc(OCCBr)cc1

>  <inchikey>  (180) 
IADFYSLRLWUKCF-UHFFFAOYSA-N

>  <exports>  (180) 
['/opt/xchem-fragalysis-2/maxwin/2A_HIPPO/hippo/A71EV2A_10_recipes/Recipe_1LPVPY0_poses.sdf']

>  <original ID>  (180) 
IADFYSLRLWUKCF-UHFFFAOYSA-N

>  <energy_score>  (180) 
-8.896971

>  <tags>  (180) 
[]

>  <HIPPO ID>  (180) 
118512

>  <name>  (180) 
IADFYSLRLWUKCF-UHFFFAOYSA-N

$$$$
JLHLVJUOFGCEEV-UHFFFAOYSA-N
     RDKit          3D

 14 15  0  0  0  0  0  0  0  0999 V2000
    4.5938   11.7878   27.2100 N   0  0  0  0  0  0  0  0  0  0  0  0
    5.5680   11.9671   26.6045 C   0  0  0  0  0  0  0  0  0  0  0  0
    6.8055   12.2195   25.8517 C   0  0  0  0  0  0  0  0  0  0  0  0
    7.4643   10.9867   25.5712 O   0  0  0  0  0  0  0  0  0  0  0  0
    8.5600   11.0325   24.7551 C   0  0  0  0  0  0  0  0  0  0  0  0
    8.9278    9.7783   24.2350 C   0  0  0  0  0  0  0  0  0  0  0  0
   10.0040    9.6315   23.3722 C   0  0  0  0  0  0  0  0  0  0  0  0
   10.6815   10.7788   23.0377 C   0  0  0  0  0  0  0  0  0  0  0  0
   10.3575   12.0328   23.5377 C   0  0  0  0  0  0  0  0  0  0  0  0
    9.2954   12.1731   24.4205 C   0  0  0  0  0  0  0  0  0  0  0  0
   11.2334   13.1047   22.9668 C   0  0  0  0  0  0  0  0  0  0  0  0
   12.1929   12.3711   22.0360 C   0  0  0  0  0  0  0  0  0  0  0  0
   11.7623   10.9209   22.0865 C   0  0  0  0  0  0  0  0  0  0  0  0
   12.1909    9.9837   21.4364 O   0  0  0  0  0  0  0  0  0  0  0  0
  1  2  3  0
  2  3  1  0
  3  4  1  0
  4  5  1  0
  5  6  2  0
  6  7  1  0
  7  8  2  0
  8  9  1  0
  9 10  2  0
  9 11  1  0
 11 12  1  0
 12 13  1  0
 13 14  2  0
 10  5  1  0
 13  8  1  0
M  END
>  <distance_score>  (181) 
1.145171

>  <ref_pdb>  (181) 
A1775a

>  <ref_mols>  (181) 
A1775a

>  <alias>  (181) 
None

>  <original SMILES>  (181) 
N#CCOc1ccc2c(c1)CCC2=O

>  <inchikey>  (181) 
JLHLVJUOFGCEEV-UHFFFAOYSA-N

>  <exports>  (181) 
['/opt/xchem-fragalysis-2/maxwin/2A_HIPPO/hippo/A71EV2A_10_recipes/Recipe_1LPVPY0_poses.sdf']

>  <original ID>  (181) 
JLHLVJUOFGCEEV-UHFFFAOYSA-N

>  <energy_score>  (181) 
-16.424683

>  <tags>  (181) 
[]

>  <HIPPO ID>  (181) 
118521

>  <name>  (181) 
JLHLVJUOFGCEEV-UHFFFAOYSA-N

$$$$
IAUVXBJEUVGIEF-UHFFFAOYSA-N
     RDKit          3D

 14 14  0  0  0  0  0  0  0  0999 V2000
   13.6485   11.6201   20.5978 C   0  0  0  0  0  0  0  0  0  0  0  0
   12.5769   11.9920   21.6316 C   0  0  0  0  0  0  0  0  0  0  0  0
   11.7574   10.7762   22.0540 C   0  0  0  0  0  0  0  0  0  0  0  0
   11.9022    9.6671   21.5393 O   0  0  0  0  0  0  0  0  0  0  0  0
   10.6984   10.9217   23.0822 C   0  0  0  0  0  0  0  0  0  0  0  0
   10.3658   12.1439   23.6722 C   0  0  0  0  0  0  0  0  0  0  0  0
    9.2844   12.2248   24.5600 C   0  0  0  0  0  0  0  0  0  0  0  0
    8.5265   11.0903   24.8418 C   0  0  0  0  0  0  0  0  0  0  0  0
    7.4279   11.0214   25.6471 O   0  0  0  0  0  0  0  0  0  0  0  0
    6.7647   12.2454   25.9502 C   0  0  0  0  0  0  0  0  0  0  0  0
    5.5142   11.9708   26.6715 C   0  0  0  0  0  0  0  0  0  0  0  0
    4.5292   11.7711   27.2524 N   0  0  0  0  0  0  0  0  0  0  0  0
    8.8907    9.8712   24.2783 C   0  0  0  0  0  0  0  0  0  0  0  0
    9.9701    9.7781   23.4124 C   0  0  0  0  0  0  0  0  0  0  0  0
  1  2  1  0
  2  3  1  0
  3  4  2  0
  3  5  1  0
  5  6  2  0
  6  7  1  0
  7  8  2  0
  8  9  1  0
  9 10  1  0
 10 11  1  0
 11 12  3  0
  8 13  1  0
 13 14  2  0
 14  5  1  0
M  END
>  <distance_score>  (182) 
0.36387

>  <ref_pdb>  (182) 
A1775a

>  <ref_mols>  (182) 
A1775a

>  <alias>  (182) 
None

>  <original SMILES>  (182) 
CCC(=O)c1ccc(OCC#N)cc1

>  <inchikey>  (182) 
IAUVXBJEUVGIEF-UHFFFAOYSA-N

>  <exports>  (182) 
['/opt/xchem-fragalysis-2/maxwin/2A_HIPPO/hippo/A71EV2A_10_recipes/Recipe_1LPVPY0_poses.sdf']

>  <original ID>  (182) 
IAUVXBJEUVGIEF-UHFFFAOYSA-N

>  <energy_score>  (182) 
-64.606235

>  <tags>  (182) 
[]

>  <HIPPO ID>  (182) 
118522

>  <name>  (182) 
IAUVXBJEUVGIEF-UHFFFAOYSA-N

$$$$
YVYVGHPVNHHVFQ-UHFFFAOYSA-N
     RDKit          3D

 14 14  0  0  0  0  0  0  0  0999 V2000
   13.6377   11.6145   20.6010 C   0  0  0  0  0  0  0  0  0  0  0  0
   12.5673   11.9852   21.6358 C   0  0  0  0  0  0  0  0  0  0  0  0
   11.7483   10.7694   22.0647 C   0  0  0  0  0  0  0  0  0  0  0  0
   11.9015    9.6545   21.5652 O   0  0  0  0  0  0  0  0  0  0  0  0
   10.6897   10.9226   23.0931 C   0  0  0  0  0  0  0  0  0  0  0  0
   10.3783   12.1463   23.6902 C   0  0  0  0  0  0  0  0  0  0  0  0
    9.3020   12.2390   24.5819 C   0  0  0  0  0  0  0  0  0  0  0  0
    8.5237   11.1172   24.8625 C   0  0  0  0  0  0  0  0  0  0  0  0
    7.4147   11.0700   25.6594 O   0  0  0  0  0  0  0  0  0  0  0  0
    6.9266   12.3128   26.1582 C   0  0  0  0  0  0  0  0  0  0  0  0
    5.6255   12.0890   26.9093 C   0  0  0  0  0  0  0  0  0  0  0  0
    4.5907   12.1878   26.0316 F   0  0  0  0  0  0  0  0  0  0  0  0
    8.8659    9.8960   24.2895 C   0  0  0  0  0  0  0  0  0  0  0  0
    9.9432    9.7894   23.4201 C   0  0  0  0  0  0  0  0  0  0  0  0
  1  2  1  0
  2  3  1  0
  3  4  2  0
  3  5  1  0
  5  6  2  0
  6  7  1  0
  7  8  2  0
  8  9  1  0
  9 10  1  0
 10 11  1  0
 11 12  1  0
  8 13  1  0
 13 14  2  0
 14  5  1  0
M  END
>  <distance_score>  (183) 
0.36959

>  <ref_pdb>  (183) 
A1775a

>  <ref_mols>  (183) 
A1775a

>  <alias>  (183) 
None

>  <original SMILES>  (183) 
CCC(=O)c1ccc(OCCF)cc1

>  <inchikey>  (183) 
YVYVGHPVNHHVFQ-UHFFFAOYSA-N

>  <exports>  (183) 
['/opt/xchem-fragalysis-2/maxwin/2A_HIPPO/hippo/A71EV2A_10_recipes/Recipe_1LPVPY0_poses.sdf']

>  <original ID>  (183) 
YVYVGHPVNHHVFQ-UHFFFAOYSA-N

>  <energy_score>  (183) 
-14.65032

>  <tags>  (183) 
[]

>  <HIPPO ID>  (183) 
118525

>  <name>  (183) 
YVYVGHPVNHHVFQ-UHFFFAOYSA-N

$$$$
LCOVGPXTXTWUSS-UHFFFAOYSA-N
     RDKit          3D

 14 15  0  0  0  0  0  0  0  0999 V2000
   12.2079    9.9641   21.4102 O   0  0  0  0  0  0  0  0  0  0  0  0
   11.7814   10.9074   22.0527 C   0  0  0  0  0  0  0  0  0  0  0  0
   12.2207   12.3541   21.9938 C   0  0  0  0  0  0  0  0  0  0  0  0
   11.2583   13.1011   22.9103 C   0  0  0  0  0  0  0  0  0  0  0  0
   10.3908   12.0349   23.5029 C   0  0  0  0  0  0  0  0  0  0  0  0
    9.3519   12.1816   24.4101 C   0  0  0  0  0  0  0  0  0  0  0  0
    8.6322   11.0420   24.7776 C   0  0  0  0  0  0  0  0  0  0  0  0
    7.6052   10.9973   25.6758 O   0  0  0  0  0  0  0  0  0  0  0  0
    6.8703   12.1977   25.8896 C   0  0  0  0  0  0  0  0  0  0  0  0
    5.8013   11.9247   26.9342 C   0  0  0  0  0  0  0  0  0  0  0  0
    4.9237   11.0025   26.4626 F   0  0  0  0  0  0  0  0  0  0  0  0
    8.9711    9.7865   24.2423 C   0  0  0  0  0  0  0  0  0  0  0  0
   10.0231    9.6332   23.3522 C   0  0  0  0  0  0  0  0  0  0  0  0
   10.7014   10.7765   23.0052 C   0  0  0  0  0  0  0  0  0  0  0  0
  1  2  2  0
  2  3  1  0
  3  4  1  0
  4  5  1  0
  5  6  2  0
  6  7  1  0
  7  8  1  0
  8  9  1  0
  9 10  1  0
 10 11  1  0
  7 12  2  0
 12 13  1  0
 13 14  2  0
 14  2  1  0
 14  5  1  0
M  END
>  <distance_score>  (184) 
1.132918

>  <ref_pdb>  (184) 
A1775a

>  <ref_mols>  (184) 
A1775a

>  <alias>  (184) 
None

>  <original SMILES>  (184) 
O=C1CCc2cc(OCCF)ccc21

>  <inchikey>  (184) 
LCOVGPXTXTWUSS-UHFFFAOYSA-N

>  <exports>  (184) 
['/opt/xchem-fragalysis-2/maxwin/2A_HIPPO/hippo/A71EV2A_10_recipes/Recipe_1LPVPY0_poses.sdf']

>  <original ID>  (184) 
LCOVGPXTXTWUSS-UHFFFAOYSA-N

>  <energy_score>  (184) 
-22.624855

>  <tags>  (184) 
[]

>  <HIPPO ID>  (184) 
118526

>  <name>  (184) 
LCOVGPXTXTWUSS-UHFFFAOYSA-N

$$$$
GQHAVAKLVAASDI-UHFFFAOYSA-N
     RDKit          3D

 14 15  0  0  0  0  0  0  0  0999 V2000
   12.1769    9.9908   21.4319 O   0  0  0  0  0  0  0  0  0  0  0  0
   11.7603   10.9230   22.0974 C   0  0  0  0  0  0  0  0  0  0  0  0
   12.1981   12.3720   22.0576 C   0  0  0  0  0  0  0  0  0  0  0  0
   11.3370   13.0782   23.0992 C   0  0  0  0  0  0  0  0  0  0  0  0
   10.4042   12.0220   23.6033 C   0  0  0  0  0  0  0  0  0  0  0  0
    9.3468   12.1633   24.4909 C   0  0  0  0  0  0  0  0  0  0  0  0
    8.5751   11.0353   24.7847 C   0  0  0  0  0  0  0  0  0  0  0  0
    7.4687   10.9996   25.5870 O   0  0  0  0  0  0  0  0  0  0  0  0
    6.8920   12.2480   25.9608 C   0  0  0  0  0  0  0  0  0  0  0  0
    5.5633   11.9995   26.6519 C   0  0  0  0  0  0  0  0  0  0  0  0
    5.8365   11.2501   28.4307 Br  0  0  0  0  0  0  0  0  0  0  0  0
    8.9101    9.7873   24.2291 C   0  0  0  0  0  0  0  0  0  0  0  0
    9.9791    9.6388   23.3574 C   0  0  0  0  0  0  0  0  0  0  0  0
   10.6861   10.7777   23.0558 C   0  0  0  0  0  0  0  0  0  0  0  0
  1  2  2  0
  2  3  1  0
  3  4  1  0
  4  5  1  0
  5  6  2  0
  6  7  1  0
  7  8  1  0
  8  9  1  0
  9 10  1  0
 10 11  1  0
  7 12  2  0
 12 13  1  0
 13 14  2  0
 14  2  1  0
 14  5  1  0
M  END
>  <distance_score>  (185) 
1.138898

>  <ref_pdb>  (185) 
A1775a

>  <ref_mols>  (185) 
A1775a

>  <alias>  (185) 
None

>  <original SMILES>  (185) 
O=C1CCc2cc(OCCBr)ccc21

>  <inchikey>  (185) 
GQHAVAKLVAASDI-UHFFFAOYSA-N

>  <exports>  (185) 
['/opt/xchem-fragalysis-2/maxwin/2A_HIPPO/hippo/A71EV2A_10_recipes/Recipe_1LPVPY0_poses.sdf']

>  <original ID>  (185) 
GQHAVAKLVAASDI-UHFFFAOYSA-N

>  <energy_score>  (185) 
-22.225608

>  <tags>  (185) 
[]

>  <HIPPO ID>  (185) 
118549

>  <name>  (185) 
GQHAVAKLVAASDI-UHFFFAOYSA-N

$$$$
DGRPJRSRLYATME-UHFFFAOYSA-N
     RDKit          3D

 15 15  0  0  0  0  0  0  0  0999 V2000
    6.1446   11.5690   29.1438 C   0  0  0  0  0  0  0  0  0  0  0  0
    5.5104   11.0147   27.8792 C   0  0  0  0  0  0  0  0  0  0  0  0
    5.5038   12.0196   26.7260 C   0  0  0  0  0  0  0  0  0  0  0  0
    6.8709   12.2786   26.0974 C   0  0  0  0  0  0  0  0  0  0  0  0
    7.4350   11.0455   25.6709 O   0  0  0  0  0  0  0  0  0  0  0  0
    8.5366   11.1036   24.8685 C   0  0  0  0  0  0  0  0  0  0  0  0
    8.8774    9.8864   24.2864 C   0  0  0  0  0  0  0  0  0  0  0  0
    9.9508    9.7867   23.4132 C   0  0  0  0  0  0  0  0  0  0  0  0
   10.6950   10.9231   23.0926 C   0  0  0  0  0  0  0  0  0  0  0  0
   11.7520   10.7729   22.0624 C   0  0  0  0  0  0  0  0  0  0  0  0
   11.9051    9.6589   21.5606 O   0  0  0  0  0  0  0  0  0  0  0  0
   12.5698   11.9889   21.6344 C   0  0  0  0  0  0  0  0  0  0  0  0
   13.6401   11.6175   20.5994 C   0  0  0  0  0  0  0  0  0  0  0  0
   10.3846   12.1431   23.6994 C   0  0  0  0  0  0  0  0  0  0  0  0
    9.3114   12.2286   24.5961 C   0  0  0  0  0  0  0  0  0  0  0  0
  1  2  1  0
  2  3  1  0
  3  4  1  0
  4  5  1  0
  5  6  1  0
  6  7  2  0
  7  8  1  0
  8  9  2  0
  9 10  1  0
 10 11  2  0
 10 12  1  0
 12 13  1  0
  9 14  1  0
 14 15  2  0
 15  6  1  0
M  END
>  <distance_score>  (186) 
0.360207

>  <ref_pdb>  (186) 
A1775a

>  <ref_mols>  (186) 
A1775a

>  <alias>  (186) 
None

>  <original SMILES>  (186) 
CCCCOc1ccc(C(=O)CC)cc1

>  <inchikey>  (186) 
DGRPJRSRLYATME-UHFFFAOYSA-N

>  <exports>  (186) 
['/opt/xchem-fragalysis-2/maxwin/2A_HIPPO/hippo/A71EV2A_10_recipes/Recipe_1LPVPY0_poses.sdf']

>  <original ID>  (186) 
DGRPJRSRLYATME-UHFFFAOYSA-N

>  <energy_score>  (186) 
-18.450649

>  <tags>  (186) 
[]

>  <HIPPO ID>  (186) 
118688

>  <name>  (186) 
DGRPJRSRLYATME-UHFFFAOYSA-N

$$$$
WZRMYAHHIGSNNQ-UHFFFAOYSA-N
     RDKit          3D

 15 16  0  0  0  0  0  0  0  0999 V2000
    4.3572   10.9355   28.5982 C   0  0  0  0  0  0  0  0  0  0  0  0
    5.7115   11.1424   27.9388 C   0  0  0  0  0  0  0  0  0  0  0  0
    5.5963   12.0340   26.7030 C   0  0  0  0  0  0  0  0  0  0  0  0
    6.9354   12.2606   26.0070 C   0  0  0  0  0  0  0  0  0  0  0  0
    7.4786   11.0095   25.6042 O   0  0  0  0  0  0  0  0  0  0  0  0
    8.5837   11.0401   24.7991 C   0  0  0  0  0  0  0  0  0  0  0  0
    8.9044    9.7936   24.2316 C   0  0  0  0  0  0  0  0  0  0  0  0
    9.9691    9.6423   23.3550 C   0  0  0  0  0  0  0  0  0  0  0  0
   10.6868   10.7768   23.0615 C   0  0  0  0  0  0  0  0  0  0  0  0
   10.4207   12.0185   23.6226 C   0  0  0  0  0  0  0  0  0  0  0  0
    9.3672   12.1624   24.5141 C   0  0  0  0  0  0  0  0  0  0  0  0
   11.3694   13.0673   23.1330 C   0  0  0  0  0  0  0  0  0  0  0  0
   12.2000   12.3690   22.0618 C   0  0  0  0  0  0  0  0  0  0  0  0
   11.7585   10.9208   22.0999 C   0  0  0  0  0  0  0  0  0  0  0  0
   12.1708    9.9888   21.4314 O   0  0  0  0  0  0  0  0  0  0  0  0
  1  2  1  0
  2  3  1  0
  3  4  1  0
  4  5  1  0
  5  6  1  0
  6  7  2  0
  7  8  1  0
  8  9  2  0
  9 10  1  0
 10 11  2  0
 10 12  1  0
 12 13  1  0
 13 14  1  0
 14 15  2  0
 11  6  1  0
 14  9  1  0
M  END
>  <distance_score>  (187) 
1.135827

>  <ref_pdb>  (187) 
A1775a

>  <ref_mols>  (187) 
A1775a

>  <alias>  (187) 
None

>  <original SMILES>  (187) 
CCCCOc1ccc2c(c1)CCC2=O

>  <inchikey>  (187) 
WZRMYAHHIGSNNQ-UHFFFAOYSA-N

>  <exports>  (187) 
['/opt/xchem-fragalysis-2/maxwin/2A_HIPPO/hippo/A71EV2A_10_recipes/Recipe_1LPVPY0_poses.sdf']

>  <original ID>  (187) 
WZRMYAHHIGSNNQ-UHFFFAOYSA-N

>  <energy_score>  (187) 
-19.106819

>  <tags>  (187) 
[]

>  <HIPPO ID>  (187) 
118689

>  <name>  (187) 
WZRMYAHHIGSNNQ-UHFFFAOYSA-N

$$$$
SCHFMXGOAQZALY-UHFFFAOYSA-N
     RDKit          3D

 15 15  0  0  0  0  0  0  0  0999 V2000
   13.6570   11.6158   20.5883 C   0  0  0  0  0  0  0  0  0  0  0  0
   12.5840   11.9869   21.6200 C   0  0  0  0  0  0  0  0  0  0  0  0
   11.7640   10.7716   22.0445 C   0  0  0  0  0  0  0  0  0  0  0  0
   11.9115    9.6599   21.5361 O   0  0  0  0  0  0  0  0  0  0  0  0
   10.7078   10.9212   23.0749 C   0  0  0  0  0  0  0  0  0  0  0  0
   10.3875   12.1452   23.6678 C   0  0  0  0  0  0  0  0  0  0  0  0
    9.3157   12.2305   24.5650 C   0  0  0  0  0  0  0  0  0  0  0  0
    8.5533   11.1006   24.8527 C   0  0  0  0  0  0  0  0  0  0  0  0
    7.4614   11.0435   25.6691 O   0  0  0  0  0  0  0  0  0  0  0  0
    6.8442   12.2812   26.0030 C   0  0  0  0  0  0  0  0  0  0  0  0
    5.5154   11.9750   26.6817 C   0  0  0  0  0  0  0  0  0  0  0  0
    4.7887   13.2507   27.0861 C   0  0  0  0  0  0  0  0  0  0  0  0
    3.4618   12.9679   27.6113 N   0  0  0  0  0  0  0  0  0  0  0  0
    8.9013    9.8804   24.2819 C   0  0  0  0  0  0  0  0  0  0  0  0
    9.9736    9.7816   23.4074 C   0  0  0  0  0  0  0  0  0  0  0  0
  1  2  1  0
  2  3  1  0
  3  4  2  0
  3  5  1  0
  5  6  2  0
  6  7  1  0
  7  8  2  0
  8  9  1  0
  9 10  1  0
 10 11  1  0
 11 12  1  0
 12 13  1  0
  8 14  1  0
 14 15  2  0
 15  5  1  0
M  END
>  <distance_score>  (188) 
0.356832

>  <ref_pdb>  (188) 
A1775a

>  <ref_mols>  (188) 
A1775a

>  <alias>  (188) 
None

>  <original SMILES>  (188) 
CCC(=O)c1ccc(OCCCN)cc1

>  <inchikey>  (188) 
SCHFMXGOAQZALY-UHFFFAOYSA-N

>  <exports>  (188) 
['/opt/xchem-fragalysis-2/maxwin/2A_HIPPO/hippo/A71EV2A_10_recipes/Recipe_1LPVPY0_poses.sdf']

>  <original ID>  (188) 
SCHFMXGOAQZALY-UHFFFAOYSA-N

>  <energy_score>  (188) 
-8.437171

>  <tags>  (188) 
[]

>  <HIPPO ID>  (188) 
118895

>  <name>  (188) 
SCHFMXGOAQZALY-UHFFFAOYSA-N

$$$$
UVXOHAHAHIQJCK-UHFFFAOYSA-N
     RDKit          3D

 15 16  0  0  0  0  0  0  0  0999 V2000
    3.2865   12.7701   26.8329 N   0  0  0  0  0  0  0  0  0  0  0  0
    4.5209   12.9899   26.0846 C   0  0  0  0  0  0  0  0  0  0  0  0
    5.5551   11.9232   26.4138 C   0  0  0  0  0  0  0  0  0  0  0  0
    6.8474   12.1964   25.6573 C   0  0  0  0  0  0  0  0  0  0  0  0
    7.6686   11.0359   25.7271 O   0  0  0  0  0  0  0  0  0  0  0  0
    8.7019   11.0331   24.8303 C   0  0  0  0  0  0  0  0  0  0  0  0
    8.9625    9.7904   24.2311 C   0  0  0  0  0  0  0  0  0  0  0  0
    9.9918    9.6363   23.3155 C   0  0  0  0  0  0  0  0  0  0  0  0
   10.7291   10.7609   23.0252 C   0  0  0  0  0  0  0  0  0  0  0  0
   10.5132   11.9992   23.6158 C   0  0  0  0  0  0  0  0  0  0  0  0
    9.4962   12.1480   24.5431 C   0  0  0  0  0  0  0  0  0  0  0  0
   11.4895   13.0266   23.1371 C   0  0  0  0  0  0  0  0  0  0  0  0
   12.2510   12.3349   22.0122 C   0  0  0  0  0  0  0  0  0  0  0  0
   11.7916   10.8931   22.0532 C   0  0  0  0  0  0  0  0  0  0  0  0
   12.1881    9.9564   21.3825 O   0  0  0  0  0  0  0  0  0  0  0  0
  1  2  1  0
  2  3  1  0
  3  4  1  0
  4  5  1  0
  5  6  1  0
  6  7  2  0
  7  8  1  0
  8  9  2  0
  9 10  1  0
 10 11  2  0
 10 12  1  0
 12 13  1  0
 13 14  1  0
 14 15  2  0
 11  6  1  0
 14  9  1  0
M  END
>  <distance_score>  (189) 
1.11177

>  <ref_pdb>  (189) 
A1775a

>  <ref_mols>  (189) 
A1775a

>  <alias>  (189) 
None

>  <original SMILES>  (189) 
NCCCOc1ccc2c(c1)CCC2=O

>  <inchikey>  (189) 
UVXOHAHAHIQJCK-UHFFFAOYSA-N

>  <exports>  (189) 
['/opt/xchem-fragalysis-2/maxwin/2A_HIPPO/hippo/A71EV2A_10_recipes/Recipe_1LPVPY0_poses.sdf']

>  <original ID>  (189) 
UVXOHAHAHIQJCK-UHFFFAOYSA-N

>  <energy_score>  (189) 
-20.22488

>  <tags>  (189) 
[]

>  <HIPPO ID>  (189) 
118896

>  <name>  (189) 
UVXOHAHAHIQJCK-UHFFFAOYSA-N

$$$$
APUDIGAMSCIXOS-UHFFFAOYSA-N
     RDKit          3D

 15 16  0  0  0  0  0  0  0  0999 V2000
    7.7981   12.6822   26.8968 C   0  0  0  0  0  0  0  0  0  0  0  0
    6.8927   11.9792   26.2068 C   0  0  0  0  0  0  0  0  0  0  0  0
    5.5067   11.7565   26.7510 C   0  0  0  0  0  0  0  0  0  0  0  0
    4.2659   13.3852   26.1691 I   0  0  0  0  0  0  0  0  0  0  0  0
    7.1162   11.3680   24.9892 O   0  0  0  0  0  0  0  0  0  0  0  0
    8.3856   11.2482   24.4748 C   0  0  0  0  0  0  0  0  0  0  0  0
    8.8600    9.9416   24.2740 C   0  0  0  0  0  0  0  0  0  0  0  0
   10.0191    9.7107   23.5460 C   0  0  0  0  0  0  0  0  0  0  0  0
   10.6638   10.8205   23.0444 C   0  0  0  0  0  0  0  0  0  0  0  0
   10.2377   12.1264   23.2552 C   0  0  0  0  0  0  0  0  0  0  0  0
    9.0688   12.3532   23.9568 C   0  0  0  0  0  0  0  0  0  0  0  0
   11.0699   13.1230   22.5058 C   0  0  0  0  0  0  0  0  0  0  0  0
   12.2159   12.2923   21.9380 C   0  0  0  0  0  0  0  0  0  0  0  0
   11.7622   10.8589   22.1044 C   0  0  0  0  0  0  0  0  0  0  0  0
   12.1738    9.8672   21.5295 O   0  0  0  0  0  0  0  0  0  0  0  0
  1  2  2  0
  2  3  1  0
  3  4  1  0
  2  5  1  0
  5  6  1  0
  6  7  2  0
  7  8  1  0
  8  9  2  0
  9 10  1  0
 10 11  2  0
 10 12  1  0
 12 13  1  0
 13 14  1  0
 14 15  2  0
 11  6  1  0
 14  9  1  0
M  END
>  <distance_score>  (190) 
1.175983

>  <ref_pdb>  (190) 
A1775a

>  <ref_mols>  (190) 
A1775a

>  <alias>  (190) 
None

>  <original SMILES>  (190) 
C=C(CI)Oc1ccc2c(c1)CCC2=O

>  <inchikey>  (190) 
APUDIGAMSCIXOS-UHFFFAOYSA-N

>  <exports>  (190) 
['/opt/xchem-fragalysis-2/maxwin/2A_HIPPO/hippo/A71EV2A_10_recipes/Recipe_1LPVPY0_poses.sdf']

>  <original ID>  (190) 
APUDIGAMSCIXOS-UHFFFAOYSA-N

>  <energy_score>  (190) 
-13.6622

>  <tags>  (190) 
[]

>  <HIPPO ID>  (190) 
118902

>  <name>  (190) 
APUDIGAMSCIXOS-UHFFFAOYSA-N

$$$$
UUUVWGOVAKXESA-UHFFFAOYSA-N
     RDKit          3D

 15 15  0  0  0  0  0  0  0  0999 V2000
    7.7505   12.6684   26.9059 C   0  0  0  0  0  0  0  0  0  0  0  0
    6.8545   11.9590   26.2117 C   0  0  0  0  0  0  0  0  0  0  0  0
    5.4423   11.8100   26.7083 C   0  0  0  0  0  0  0  0  0  0  0  0
    4.2876   13.4310   25.9556 I   0  0  0  0  0  0  0  0  0  0  0  0
    7.1163   11.2554   25.0528 O   0  0  0  0  0  0  0  0  0  0  0  0
    8.3716   11.2189   24.5008 C   0  0  0  0  0  0  0  0  0  0  0  0
    8.9157    9.9615   24.2636 C   0  0  0  0  0  0  0  0  0  0  0  0
   10.0823    9.8349   23.5206 C   0  0  0  0  0  0  0  0  0  0  0  0
   10.7011   10.9752   22.9973 C   0  0  0  0  0  0  0  0  0  0  0  0
   11.7959   10.7791   22.0186 C   0  0  0  0  0  0  0  0  0  0  0  0
   11.9554    9.6470   21.5634 O   0  0  0  0  0  0  0  0  0  0  0  0
   12.6283   11.9796   21.5758 C   0  0  0  0  0  0  0  0  0  0  0  0
   13.7094   11.5943   20.5622 C   0  0  0  0  0  0  0  0  0  0  0  0
   10.1806   12.2418   23.2715 C   0  0  0  0  0  0  0  0  0  0  0  0
    8.9970   12.3571   23.9973 C   0  0  0  0  0  0  0  0  0  0  0  0
  1  2  2  0
  2  3  1  0
  3  4  1  0
  2  5  1  0
  5  6  1  0
  6  7  2  0
  7  8  1  0
  8  9  2  0
  9 10  1  0
 10 11  2  0
 10 12  1  0
 12 13  1  0
  9 14  1  0
 14 15  2  0
 15  6  1  0
M  END
>  <distance_score>  (191) 
0.536502

>  <ref_pdb>  (191) 
A1775a

>  <ref_mols>  (191) 
A1775a

>  <alias>  (191) 
None

>  <original SMILES>  (191) 
C=C(CI)Oc1ccc(C(=O)CC)cc1

>  <inchikey>  (191) 
UUUVWGOVAKXESA-UHFFFAOYSA-N

>  <exports>  (191) 
['/opt/xchem-fragalysis-2/maxwin/2A_HIPPO/hippo/A71EV2A_10_recipes/Recipe_1LPVPY0_poses.sdf']

>  <original ID>  (191) 
UUUVWGOVAKXESA-UHFFFAOYSA-N

>  <energy_score>  (191) 
-21.795154

>  <tags>  (191) 
[]

>  <HIPPO ID>  (191) 
118904

>  <name>  (191) 
UUUVWGOVAKXESA-UHFFFAOYSA-N

$$$$
RMHYOGPORBRAIA-UHFFFAOYSA-N
     RDKit          3D

 15 15  0  0  0  0  0  0  0  0999 V2000
   13.9187   11.6466   20.3805 C   0  0  0  0  0  0  0  0  0  0  0  0
   12.8591   12.0867   21.3811 C   0  0  0  0  0  0  0  0  0  0  0  0
   12.0247   10.9468   21.8543 C   0  0  0  0  0  0  0  0  0  0  0  0
   12.1026    9.8170   21.3729 O   0  0  0  0  0  0  0  0  0  0  0  0
   11.0401   11.2102   22.9143 C   0  0  0  0  0  0  0  0  0  0  0  0
   10.7284   12.4494   23.4966 C   0  0  0  0  0  0  0  0  0  0  0  0
    9.6788   12.5548   24.4323 C   0  0  0  0  0  0  0  0  0  0  0  0
    8.9311   11.4285   24.7431 C   0  0  0  0  0  0  0  0  0  0  0  0
    7.8730   11.3239   25.6009 O   0  0  0  0  0  0  0  0  0  0  0  0
    7.1730   12.5050   25.9440 C   0  0  0  0  0  0  0  0  0  0  0  0
    5.9358   12.1510   26.7562 C   0  0  0  0  0  0  0  0  0  0  0  0
    4.9223   11.8388   25.9050 F   0  0  0  0  0  0  0  0  0  0  0  0
    9.2956   10.2371   24.1323 C   0  0  0  0  0  0  0  0  0  0  0  0
    8.3828    8.8642   24.2778 Cl  0  0  0  0  0  0  0  0  0  0  0  0
   10.3441   10.0915   23.2734 C   0  0  0  0  0  0  0  0  0  0  0  0
  1  2  1  0
  2  3  1  0
  3  4  2  0
  3  5  1  0
  5  6  2  0
  6  7  1  0
  7  8  2  0
  8  9  1  0
  9 10  1  0
 10 11  1  0
 11 12  1  0
  8 13  1  0
 13 14  1  0
 13 15  2  0
 15  5  1  0
M  END
>  <distance_score>  (192) 
0.592102

>  <ref_pdb>  (192) 
A1775a

>  <ref_mols>  (192) 
A1775a

>  <alias>  (192) 
None

>  <original SMILES>  (192) 
CCC(=O)c1ccc(OCCF)c(Cl)c1

>  <inchikey>  (192) 
RMHYOGPORBRAIA-UHFFFAOYSA-N

>  <exports>  (192) 
['/opt/xchem-fragalysis-2/maxwin/2A_HIPPO/hippo/A71EV2A_10_recipes/Recipe_1LPVPY0_poses.sdf']

>  <original ID>  (192) 
RMHYOGPORBRAIA-UHFFFAOYSA-N

>  <energy_score>  (192) 
1.131065

>  <tags>  (192) 
[]

>  <HIPPO ID>  (192) 
118935

>  <name>  (192) 
RMHYOGPORBRAIA-UHFFFAOYSA-N

$$$$
ZTEZREHSTRFDJW-UHFFFAOYSA-N
     RDKit          3D

 15 16  0  0  0  0  0  0  0  0999 V2000
    5.4083   12.5380   26.2085 C   0  0  0  0  0  0  0  0  0  0  0  0
    6.3194   11.4370   26.7081 C   0  0  0  0  0  0  0  0  0  0  0  0
    6.9478   10.7331   25.6382 O   0  0  0  0  0  0  0  0  0  0  0  0
    8.1430   11.1903   25.1703 C   0  0  0  0  0  0  0  0  0  0  0  0
    8.7037   12.4105   25.5086 C   0  0  0  0  0  0  0  0  0  0  0  0
    9.9104   12.7913   24.9555 C   0  0  0  0  0  0  0  0  0  0  0  0
   10.5434   11.9548   24.0427 C   0  0  0  0  0  0  0  0  0  0  0  0
   10.0054   10.7390   23.6428 C   0  0  0  0  0  0  0  0  0  0  0  0
    8.8076   10.3524   24.2658 C   0  0  0  0  0  0  0  0  0  0  0  0
   10.5700    9.8419   22.5813 C   0  0  0  0  0  0  0  0  0  0  0  0
   11.8942   10.0878   21.8482 C   0  0  0  0  0  0  0  0  0  0  0  0
   12.4649   11.4733   21.4315 C   0  0  0  0  0  0  0  0  0  0  0  0
   11.7509   12.6625   22.0159 C   0  0  0  0  0  0  0  0  0  0  0  0
   11.7524   12.5106   23.4748 C   0  0  0  0  0  0  0  0  0  0  0  0
   12.6619   12.8770   24.1985 O   0  0  0  0  0  0  0  0  0  0  0  0
  1  2  1  0
  2  3  1  0
  3  4  1  0
  4  5  2  0
  5  6  1  0
  6  7  2  0
  7  8  1  0
  8  9  2  0
  8 10  1  0
 10 11  1  0
 11 12  1  0
 12 13  1  0
 13 14  1  0
 14 15  2  0
  9  4  1  0
 14  7  1  0
M  END
>  <distance_score>  (193) 
1.821512

>  <ref_pdb>  (193) 
A1775a

>  <ref_mols>  (193) 
A1775a

>  <alias>  (193) 
None

>  <original SMILES>  (193) 
CCOc1ccc2c(c1)CCCCC2=O

>  <inchikey>  (193) 
ZTEZREHSTRFDJW-UHFFFAOYSA-N

>  <exports>  (193) 
['/opt/xchem-fragalysis-2/maxwin/2A_HIPPO/hippo/A71EV2A_10_recipes/Recipe_1LPVPY0_poses.sdf']

>  <original ID>  (193) 
ZTEZREHSTRFDJW-UHFFFAOYSA-N

>  <energy_score>  (193) 
-11.001939

>  <tags>  (193) 
[]

>  <HIPPO ID>  (193) 
119004

>  <name>  (193) 
ZTEZREHSTRFDJW-UHFFFAOYSA-N

$$$$
WBPLFSNMUNEPOM-UHFFFAOYSA-N
     RDKit          3D

 15 16  0  0  0  0  0  0  0  0999 V2000
    4.5690   12.9703   25.9485 C   0  0  0  0  0  0  0  0  0  0  0  0
    5.5220   12.0911   26.2815 C   0  0  0  0  0  0  0  0  0  0  0  0
    5.0950   10.5998   27.3081 Br  0  0  0  0  0  0  0  0  0  0  0  0
    6.9517   12.2343   25.8390 C   0  0  0  0  0  0  0  0  0  0  0  0
    7.5089   10.9757   25.4809 O   0  0  0  0  0  0  0  0  0  0  0  0
    8.6457   10.9953   24.7235 C   0  0  0  0  0  0  0  0  0  0  0  0
    8.9647    9.7487   24.1569 C   0  0  0  0  0  0  0  0  0  0  0  0
   10.0353    9.5998   23.2898 C   0  0  0  0  0  0  0  0  0  0  0  0
   10.7571   10.7354   23.0101 C   0  0  0  0  0  0  0  0  0  0  0  0
   10.5025   11.9725   23.5860 C   0  0  0  0  0  0  0  0  0  0  0  0
    9.4475   12.1135   24.4719 C   0  0  0  0  0  0  0  0  0  0  0  0
   11.4641   13.0175   23.1149 C   0  0  0  0  0  0  0  0  0  0  0  0
   12.2596   12.3347   22.0083 C   0  0  0  0  0  0  0  0  0  0  0  0
   11.8199   10.8871   22.0423 C   0  0  0  0  0  0  0  0  0  0  0  0
   12.2262    9.9597   21.3652 O   0  0  0  0  0  0  0  0  0  0  0  0
  1  2  2  0
  2  3  1  0
  2  4  1  0
  4  5  1  0
  5  6  1  0
  6  7  2  0
  7  8  1  0
  8  9  2  0
  9 10  1  0
 10 11  2  0
 10 12  1  0
 12 13  1  0
 13 14  1  0
 14 15  2  0
 11  6  1  0
 14  9  1  0
M  END
>  <distance_score>  (194) 
1.106248

>  <ref_pdb>  (194) 
A1775a

>  <ref_mols>  (194) 
A1775a

>  <alias>  (194) 
None

>  <original SMILES>  (194) 
C=C(Br)COc1ccc2c(c1)CCC2=O

>  <inchikey>  (194) 
WBPLFSNMUNEPOM-UHFFFAOYSA-N

>  <exports>  (194) 
['/opt/xchem-fragalysis-2/maxwin/2A_HIPPO/hippo/A71EV2A_10_recipes/Recipe_1LPVPY0_poses.sdf']

>  <original ID>  (194) 
WBPLFSNMUNEPOM-UHFFFAOYSA-N

>  <energy_score>  (194) 
-12.333895

>  <tags>  (194) 
[]

>  <HIPPO ID>  (194) 
119018

>  <name>  (194) 
WBPLFSNMUNEPOM-UHFFFAOYSA-N

$$$$
XQDZYPLXSFLOTR-UHFFFAOYSA-N
     RDKit          3D

 15 15  0  0  0  0  0  0  0  0999 V2000
   13.6836   11.6176   20.5678 C   0  0  0  0  0  0  0  0  0  0  0  0
   12.6066   11.9856   21.5955 C   0  0  0  0  0  0  0  0  0  0  0  0
   11.7899   10.7685   22.0158 C   0  0  0  0  0  0  0  0  0  0  0  0
   11.9472    9.6559   21.5133 O   0  0  0  0  0  0  0  0  0  0  0  0
   10.7287   10.9126   23.0392 C   0  0  0  0  0  0  0  0  0  0  0  0
   10.0145    9.7625   23.3780 C   0  0  0  0  0  0  0  0  0  0  0  0
    8.9462    9.8481   24.2554 C   0  0  0  0  0  0  0  0  0  0  0  0
    8.5841   11.0658   24.8218 C   0  0  0  0  0  0  0  0  0  0  0  0
    7.5153   10.9869   25.6617 O   0  0  0  0  0  0  0  0  0  0  0  0
    6.8204   12.1955   25.9418 C   0  0  0  0  0  0  0  0  0  0  0  0
    5.5842   11.8190   26.7390 C   0  0  0  0  0  0  0  0  0  0  0  0
    4.7727   12.9950   27.0262 C   0  0  0  0  0  0  0  0  0  0  0  0
    4.1420   13.9297   27.2883 N   0  0  0  0  0  0  0  0  0  0  0  0
    9.3177   12.2100   24.5198 C   0  0  0  0  0  0  0  0  0  0  0  0
   10.3874   12.1366   23.6204 C   0  0  0  0  0  0  0  0  0  0  0  0
  1  2  1  0
  2  3  1  0
  3  4  2  0
  3  5  1  0
  5  6  2  0
  6  7  1  0
  7  8  2  0
  8  9  1  0
  9 10  1  0
 10 11  1  0
 11 12  1  0
 12 13  3  0
  8 14  1  0
 14 15  2  0
 15  5  1  0
M  END
>  <distance_score>  (195) 
0.357363

>  <ref_pdb>  (195) 
A1775a

>  <ref_mols>  (195) 
A1775a

>  <alias>  (195) 
None

>  <original SMILES>  (195) 
CCC(=O)c1ccc(OCCC#N)cc1

>  <inchikey>  (195) 
XQDZYPLXSFLOTR-UHFFFAOYSA-N

>  <exports>  (195) 
['/opt/xchem-fragalysis-2/maxwin/2A_HIPPO/hippo/A71EV2A_10_recipes/Recipe_1LPVPY0_poses.sdf']

>  <original ID>  (195) 
XQDZYPLXSFLOTR-UHFFFAOYSA-N

>  <energy_score>  (195) 
-44.091931

>  <tags>  (195) 
[]

>  <HIPPO ID>  (195) 
119045

>  <name>  (195) 
XQDZYPLXSFLOTR-UHFFFAOYSA-N

$$$$
TXBBTQALJLEGAY-UHFFFAOYSA-N
     RDKit          3D

 15 16  0  0  0  0  0  0  0  0999 V2000
    3.6619   13.5857   26.0856 N   0  0  0  0  0  0  0  0  0  0  0  0
    4.5358   12.8535   26.2899 C   0  0  0  0  0  0  0  0  0  0  0  0
    5.5948   11.8808   26.5443 C   0  0  0  0  0  0  0  0  0  0  0  0
    6.8309   12.1953   25.7190 C   0  0  0  0  0  0  0  0  0  0  0  0
    7.6393   11.0217   25.6927 O   0  0  0  0  0  0  0  0  0  0  0  0
    8.6721   11.0407   24.7981 C   0  0  0  0  0  0  0  0  0  0  0  0
    8.9732    9.7905   24.2319 C   0  0  0  0  0  0  0  0  0  0  0  0
   10.0142    9.6388   23.3293 C   0  0  0  0  0  0  0  0  0  0  0  0
   10.7214   10.7746   23.0125 C   0  0  0  0  0  0  0  0  0  0  0  0
   10.4587   12.0234   23.5598 C   0  0  0  0  0  0  0  0  0  0  0  0
    9.4300   12.1701   24.4763 C   0  0  0  0  0  0  0  0  0  0  0  0
   11.3847   13.0734   23.0316 C   0  0  0  0  0  0  0  0  0  0  0  0
   12.2422   12.3499   21.9992 C   0  0  0  0  0  0  0  0  0  0  0  0
   11.7921   10.9061   22.0499 C   0  0  0  0  0  0  0  0  0  0  0  0
   12.2018    9.9645   21.3940 O   0  0  0  0  0  0  0  0  0  0  0  0
  1  2  3  0
  2  3  1  0
  3  4  1  0
  4  5  1  0
  5  6  1  0
  6  7  2  0
  7  8  1  0
  8  9  2  0
  9 10  1  0
 10 11  2  0
 10 12  1  0
 12 13  1  0
 13 14  1  0
 14 15  2  0
 11  6  1  0
 14  9  1  0
M  END
>  <distance_score>  (196) 
1.120075

>  <ref_pdb>  (196) 
A1775a

>  <ref_mols>  (196) 
A1775a

>  <alias>  (196) 
None

>  <original SMILES>  (196) 
N#CCCOc1ccc2c(c1)CCC2=O

>  <inchikey>  (196) 
TXBBTQALJLEGAY-UHFFFAOYSA-N

>  <exports>  (196) 
['/opt/xchem-fragalysis-2/maxwin/2A_HIPPO/hippo/A71EV2A_10_recipes/Recipe_1LPVPY0_poses.sdf']

>  <original ID>  (196) 
TXBBTQALJLEGAY-UHFFFAOYSA-N

>  <energy_score>  (196) 
-15.251252

>  <tags>  (196) 
[]

>  <HIPPO ID>  (196) 
119046

>  <name>  (196) 
TXBBTQALJLEGAY-UHFFFAOYSA-N

$$$$
JOAPCGPLMHJWPM-UHFFFAOYSA-N
     RDKit          3D

 15 15  0  0  0  0  0  0  0  0999 V2000
    5.2830   10.3212   27.1549 C   0  0  0  0  0  0  0  0  0  0  0  0
    5.5451   11.5619   26.7218 C   0  0  0  0  0  0  0  0  0  0  0  0
    4.3007   12.8955   27.0511 Br  0  0  0  0  0  0  0  0  0  0  0  0
    6.7610   12.0088   25.9496 C   0  0  0  0  0  0  0  0  0  0  0  0
    7.5530   10.8664   25.6602 O   0  0  0  0  0  0  0  0  0  0  0  0
    8.5981   10.9950   24.8052 C   0  0  0  0  0  0  0  0  0  0  0  0
    9.3016   12.1588   24.5162 C   0  0  0  0  0  0  0  0  0  0  0  0
   10.3727   12.1147   23.6142 C   0  0  0  0  0  0  0  0  0  0  0  0
   10.7387   10.9014   23.0216 C   0  0  0  0  0  0  0  0  0  0  0  0
   11.8027   10.7746   22.0002 C   0  0  0  0  0  0  0  0  0  0  0  0
   11.9643    9.6686   21.4842 O   0  0  0  0  0  0  0  0  0  0  0  0
   12.6147   11.9954   21.5910 C   0  0  0  0  0  0  0  0  0  0  0  0
   13.6947   11.6296   20.5641 C   0  0  0  0  0  0  0  0  0  0  0  0
   10.0468    9.7347   23.3451 C   0  0  0  0  0  0  0  0  0  0  0  0
    8.9804    9.7915   24.2221 C   0  0  0  0  0  0  0  0  0  0  0  0
  1  2  2  0
  2  3  1  0
  2  4  1  0
  4  5  1  0
  5  6  1  0
  6  7  2  0
  7  8  1  0
  8  9  2  0
  9 10  1  0
 10 11  2  0
 10 12  1  0
 12 13  1  0
  9 14  1  0
 14 15  2  0
 15  6  1  0
M  END
>  <distance_score>  (197) 
0.384747

>  <ref_pdb>  (197) 
A1775a

>  <ref_mols>  (197) 
A1775a

>  <alias>  (197) 
None

>  <original SMILES>  (197) 
C=C(Br)COc1ccc(C(=O)CC)cc1

>  <inchikey>  (197) 
JOAPCGPLMHJWPM-UHFFFAOYSA-N

>  <exports>  (197) 
['/opt/xchem-fragalysis-2/maxwin/2A_HIPPO/hippo/A71EV2A_10_recipes/Recipe_1LPVPY0_poses.sdf']

>  <original ID>  (197) 
JOAPCGPLMHJWPM-UHFFFAOYSA-N

>  <energy_score>  (197) 
-12.411861

>  <tags>  (197) 
[]

>  <HIPPO ID>  (197) 
119051

>  <name>  (197) 
JOAPCGPLMHJWPM-UHFFFAOYSA-N

$$$$
IDXYNZFOHIINLD-NSCUHMNNSA-N
     RDKit          3D

 15 16  0  0  0  0  0  0  0  0999 V2000
    3.3766   12.8744   27.3843 C   0  0  0  0  0  0  0  0  0  0  0  0
    4.6217   12.9714   26.5655 C   0  0  0  0  0  0  0  0  0  0  0  0
    5.6805   12.1530   26.6875 C   0  0  0  0  0  0  0  0  0  0  0  0
    6.9337   12.3208   25.8861 C   0  0  0  0  0  0  0  0  0  0  0  0
    7.4499   11.0455   25.5298 O   0  0  0  0  0  0  0  0  0  0  0  0
    8.5662   11.0551   24.7320 C   0  0  0  0  0  0  0  0  0  0  0  0
    8.9264    9.7899   24.2364 C   0  0  0  0  0  0  0  0  0  0  0  0
   10.0074    9.6217   23.3807 C   0  0  0  0  0  0  0  0  0  0  0  0
   10.6946   10.7584   23.0251 C   0  0  0  0  0  0  0  0  0  0  0  0
   10.3773   12.0227   23.4988 C   0  0  0  0  0  0  0  0  0  0  0  0
    9.3154   12.1832   24.3756 C   0  0  0  0  0  0  0  0  0  0  0  0
   11.2420   13.0853   22.8950 C   0  0  0  0  0  0  0  0  0  0  0  0
   12.2153   12.3297   21.9984 C   0  0  0  0  0  0  0  0  0  0  0  0
   11.7733   10.8828   22.0684 C   0  0  0  0  0  0  0  0  0  0  0  0
   12.1936    9.9361   21.4270 O   0  0  0  0  0  0  0  0  0  0  0  0
  1  2  1  0
  2  3  2  0
  3  4  1  0
  4  5  1  0
  5  6  1  0
  6  7  2  0
  7  8  1  0
  8  9  2  0
  9 10  1  0
 10 11  2  0
 10 12  1  0
 12 13  1  0
 13 14  1  0
 14 15  2  0
 11  6  1  0
 14  9  1  0
M  END
>  <distance_score>  (198) 
1.123486

>  <ref_pdb>  (198) 
A1775a

>  <ref_mols>  (198) 
A1775a

>  <alias>  (198) 
None

>  <original SMILES>  (198) 
C/C=C/COc1ccc2c(c1)CCC2=O

>  <inchikey>  (198) 
IDXYNZFOHIINLD-NSCUHMNNSA-N

>  <exports>  (198) 
['/opt/xchem-fragalysis-2/maxwin/2A_HIPPO/hippo/A71EV2A_10_recipes/Recipe_1LPVPY0_poses.sdf']

>  <original ID>  (198) 
IDXYNZFOHIINLD-NSCUHMNNSA-N

>  <energy_score>  (198) 
-20.552785

>  <tags>  (198) 
[]

>  <HIPPO ID>  (198) 
119174

>  <name>  (198) 
IDXYNZFOHIINLD-NSCUHMNNSA-N

$$$$
SYCMVRGLLWKSRO-HWKANZROSA-N
     RDKit          3D

 15 15  0  0  0  0  0  0  0  0999 V2000
    3.8291   10.8345   27.9098 C   0  0  0  0  0  0  0  0  0  0  0  0
    5.0746   10.9514   27.0956 C   0  0  0  0  0  0  0  0  0  0  0  0
    5.5093   12.1010   26.5582 C   0  0  0  0  0  0  0  0  0  0  0  0
    6.7840   12.2957   25.7930 C   0  0  0  0  0  0  0  0  0  0  0  0
    7.4766   11.0664   25.6223 O   0  0  0  0  0  0  0  0  0  0  0  0
    8.5723   11.1070   24.8096 C   0  0  0  0  0  0  0  0  0  0  0  0
    9.3341   12.2360   24.5140 C   0  0  0  0  0  0  0  0  0  0  0  0
   10.4089   12.1433   23.6247 C   0  0  0  0  0  0  0  0  0  0  0  0
   10.7321   10.9136   23.0473 C   0  0  0  0  0  0  0  0  0  0  0  0
   11.7896   10.7611   22.0204 C   0  0  0  0  0  0  0  0  0  0  0  0
   11.9393    9.6473   21.5185 O   0  0  0  0  0  0  0  0  0  0  0  0
   12.6083   11.9769   21.5941 C   0  0  0  0  0  0  0  0  0  0  0  0
   13.6839   11.6092   20.5662 C   0  0  0  0  0  0  0  0  0  0  0  0
   10.0016    9.7743   23.3911 C   0  0  0  0  0  0  0  0  0  0  0  0
    8.9267    9.8790   24.2613 C   0  0  0  0  0  0  0  0  0  0  0  0
  1  2  1  0
  2  3  2  0
  3  4  1  0
  4  5  1  0
  5  6  1  0
  6  7  2  0
  7  8  1  0
  8  9  2  0
  9 10  1  0
 10 11  2  0
 10 12  1  0
 12 13  1  0
  9 14  1  0
 14 15  2  0
 15  6  1  0
M  END
>  <distance_score>  (199) 
0.356922

>  <ref_pdb>  (199) 
A1775a

>  <ref_mols>  (199) 
A1775a

>  <alias>  (199) 
None

>  <original SMILES>  (199) 
C/C=C/COc1ccc(C(=O)CC)cc1

>  <inchikey>  (199) 
SYCMVRGLLWKSRO-HWKANZROSA-N

>  <exports>  (199) 
['/opt/xchem-fragalysis-2/maxwin/2A_HIPPO/hippo/A71EV2A_10_recipes/Recipe_1LPVPY0_poses.sdf']

>  <original ID>  (199) 
SYCMVRGLLWKSRO-HWKANZROSA-N

>  <energy_score>  (199) 
-10.574245

>  <tags>  (199) 
[]

>  <HIPPO ID>  (199) 
119175

>  <name>  (199) 
SYCMVRGLLWKSRO-HWKANZROSA-N

$$$$
UIXDKHFKLRITRK-UHFFFAOYSA-N
     RDKit          3D

 15 15  0  0  0  0  0  0  0  0999 V2000
    3.8035   13.9660   26.0497 C   0  0  0  0  0  0  0  0  0  0  0  0
    4.5522   13.0627   26.3041 C   0  0  0  0  0  0  0  0  0  0  0  0
    5.5067   11.9767   26.5509 C   0  0  0  0  0  0  0  0  0  0  0  0
    6.8150   12.2488   25.8182 C   0  0  0  0  0  0  0  0  0  0  0  0
    7.5567   11.0370   25.7225 O   0  0  0  0  0  0  0  0  0  0  0  0
    8.6179   11.0808   24.8634 C   0  0  0  0  0  0  0  0  0  0  0  0
    8.9425    9.8637   24.2758 C   0  0  0  0  0  0  0  0  0  0  0  0
    9.9994    9.7693   23.3830 C   0  0  0  0  0  0  0  0  0  0  0  0
   10.7375   10.9086   23.0541 C   0  0  0  0  0  0  0  0  0  0  0  0
   11.7870   10.7634   22.0183 C   0  0  0  0  0  0  0  0  0  0  0  0
   11.9300    9.6553   21.5016 O   0  0  0  0  0  0  0  0  0  0  0  0
   12.6062   11.9801   21.5972 C   0  0  0  0  0  0  0  0  0  0  0  0
   13.6818   11.6131   20.5681 C   0  0  0  0  0  0  0  0  0  0  0  0
   10.4345   12.1298   23.6604 C   0  0  0  0  0  0  0  0  0  0  0  0
    9.3804   12.2115   24.5744 C   0  0  0  0  0  0  0  0  0  0  0  0
  1  2  3  0
  2  3  1  0
  3  4  1  0
  4  5  1  0
  5  6  1  0
  6  7  2  0
  7  8  1  0
  8  9  2  0
  9 10  1  0
 10 11  2  0
 10 12  1  0
 12 13  1  0
  9 14  1  0
 14 15  2  0
 15  6  1  0
M  END
>  <distance_score>  (200) 
0.350688

>  <ref_pdb>  (200) 
A1775a

>  <ref_mols>  (200) 
A1775a

>  <alias>  (200) 
None

>  <original SMILES>  (200) 
C#CCCOc1ccc(C(=O)CC)cc1

>  <inchikey>  (200) 
UIXDKHFKLRITRK-UHFFFAOYSA-N

>  <exports>  (200) 
['/opt/xchem-fragalysis-2/maxwin/2A_HIPPO/hippo/A71EV2A_10_recipes/Recipe_1LPVPY0_poses.sdf']

>  <original ID>  (200) 
UIXDKHFKLRITRK-UHFFFAOYSA-N

>  <energy_score>  (200) 
-42.277775

>  <tags>  (200) 
[]

>  <HIPPO ID>  (200) 
119209

>  <name>  (200) 
UIXDKHFKLRITRK-UHFFFAOYSA-N

$$$$
VRGYAGVGWCBZQO-UHFFFAOYSA-N
     RDKit          3D

 15 16  0  0  0  0  0  0  0  0999 V2000
    4.1130   13.1353   25.3309 C   0  0  0  0  0  0  0  0  0  0  0  0
    4.8514   12.5406   26.0640 C   0  0  0  0  0  0  0  0  0  0  0  0
    5.8817   11.9440   26.9127 C   0  0  0  0  0  0  0  0  0  0  0  0
    7.2402   12.1520   26.2483 C   0  0  0  0  0  0  0  0  0  0  0  0
    7.6268   10.9390   25.6169 O   0  0  0  0  0  0  0  0  0  0  0  0
    8.7126   10.9778   24.7908 C   0  0  0  0  0  0  0  0  0  0  0  0
    8.9788    9.7477   24.1632 C   0  0  0  0  0  0  0  0  0  0  0  0
   10.0217    9.6035   23.2630 C   0  0  0  0  0  0  0  0  0  0  0  0
   10.7630   10.7308   23.0035 C   0  0  0  0  0  0  0  0  0  0  0  0
   10.5456   11.9569   23.6174 C   0  0  0  0  0  0  0  0  0  0  0  0
    9.5195   12.0914   24.5373 C   0  0  0  0  0  0  0  0  0  0  0  0
   11.5216   12.9935   23.1580 C   0  0  0  0  0  0  0  0  0  0  0  0
   12.2674   12.3290   22.0064 C   0  0  0  0  0  0  0  0  0  0  0  0
   11.8209   10.8836   22.0312 C   0  0  0  0  0  0  0  0  0  0  0  0
   12.2238    9.9584   21.3489 O   0  0  0  0  0  0  0  0  0  0  0  0
  1  2  3  0
  2  3  1  0
  3  4  1  0
  4  5  1  0
  5  6  1  0
  6  7  2  0
  7  8  1  0
  8  9  2  0
  9 10  1  0
 10 11  2  0
 10 12  1  0
 12 13  1  0
 13 14  1  0
 14 15  2  0
 11  6  1  0
 14  9  1  0
M  END
>  <distance_score>  (201) 
1.104223

>  <ref_pdb>  (201) 
A1775a

>  <ref_mols>  (201) 
A1775a

>  <alias>  (201) 
None

>  <original SMILES>  (201) 
C#CCCOc1ccc2c(c1)CCC2=O

>  <inchikey>  (201) 
VRGYAGVGWCBZQO-UHFFFAOYSA-N

>  <exports>  (201) 
['/opt/xchem-fragalysis-2/maxwin/2A_HIPPO/hippo/A71EV2A_10_recipes/Recipe_1LPVPY0_poses.sdf']

>  <original ID>  (201) 
VRGYAGVGWCBZQO-UHFFFAOYSA-N

>  <energy_score>  (201) 
-378.975795

>  <tags>  (201) 
[]

>  <HIPPO ID>  (201) 
119210

>  <name>  (201) 
VRGYAGVGWCBZQO-UHFFFAOYSA-N

$$$$
VJSAKTCBEOAPDE-UHFFFAOYSA-N
     RDKit          3D

 16 16  0  0  0  0  0  0  0  0999 V2000
    5.5284   10.0410   28.5452 C   0  0  0  0  0  0  0  0  0  0  0  0
    5.5575   10.8950   27.7021 C   0  0  0  0  0  0  0  0  0  0  0  0
    5.5557   11.9027   26.6326 C   0  0  0  0  0  0  0  0  0  0  0  0
    6.9583   12.2253   26.1255 C   0  0  0  0  0  0  0  0  0  0  0  0
    7.5810   11.0492   25.6252 O   0  0  0  0  0  0  0  0  0  0  0  0
    8.6831   11.1351   24.8259 C   0  0  0  0  0  0  0  0  0  0  0  0
    8.9590    9.9110   24.2067 C   0  0  0  0  0  0  0  0  0  0  0  0
   10.0112    9.7682   23.3105 C   0  0  0  0  0  0  0  0  0  0  0  0
   10.8056   10.8690   22.9992 C   0  0  0  0  0  0  0  0  0  0  0  0
   11.8453   10.7209   21.9583 C   0  0  0  0  0  0  0  0  0  0  0  0
   11.9703    9.6144   21.4381 O   0  0  0  0  0  0  0  0  0  0  0  0
   12.6653   11.9396   21.5337 C   0  0  0  0  0  0  0  0  0  0  0  0
   13.7441   11.5861   20.5104 C   0  0  0  0  0  0  0  0  0  0  0  0
   10.5779   12.0814   23.6372 C   0  0  0  0  0  0  0  0  0  0  0  0
    9.5375   12.2105   24.5612 C   0  0  0  0  0  0  0  0  0  0  0  0
    9.4808   13.7468   25.3227 Cl  0  0  0  0  0  0  0  0  0  0  0  0
  1  2  3  0
  2  3  1  0
  3  4  1  0
  4  5  1  0
  5  6  1  0
  6  7  2  0
  7  8  1  0
  8  9  2  0
  9 10  1  0
 10 11  2  0
 10 12  1  0
 12 13  1  0
  9 14  1  0
 14 15  2  0
 15 16  1  0
 15  6  1  0
M  END
>  <distance_score>  (202) 
0.326877

>  <ref_pdb>  (202) 
A1775a

>  <ref_mols>  (202) 
A1775a

>  <alias>  (202) 
None

>  <original SMILES>  (202) 
C#CCCOc1ccc(C(=O)CC)cc1Cl

>  <inchikey>  (202) 
VJSAKTCBEOAPDE-UHFFFAOYSA-N

>  <exports>  (202) 
['/opt/xchem-fragalysis-2/maxwin/2A_HIPPO/hippo/A71EV2A_10_recipes/Recipe_1LPVPY0_poses.sdf']

>  <original ID>  (202) 
VJSAKTCBEOAPDE-UHFFFAOYSA-N

>  <energy_score>  (202) 
-21.043073

>  <tags>  (202) 
[]

>  <HIPPO ID>  (202) 
119634

>  <name>  (202) 
VJSAKTCBEOAPDE-UHFFFAOYSA-N

$$$$
GUVVSYAISZTTOF-UHFFFAOYSA-N
     RDKit          3D

 16 16  0  0  0  0  0  0  0  0999 V2000
   13.7091   11.5746   20.5331 C   0  0  0  0  0  0  0  0  0  0  0  0
   12.6350   11.9460   21.5551 C   0  0  0  0  0  0  0  0  0  0  0  0
   11.7921   10.7444   21.9921 C   0  0  0  0  0  0  0  0  0  0  0  0
   11.9093    9.6255   21.4974 O   0  0  0  0  0  0  0  0  0  0  0  0
   10.7474   10.9325   23.0261 C   0  0  0  0  0  0  0  0  0  0  0  0
    9.9291    9.8510   23.3690 C   0  0  0  0  0  0  0  0  0  0  0  0
    8.9142   10.0129   24.3099 C   0  0  0  0  0  0  0  0  0  0  0  0
    8.7170   11.2449   24.9285 C   0  0  0  0  0  0  0  0  0  0  0  0
    7.7826   11.2856   25.9286 O   0  0  0  0  0  0  0  0  0  0  0  0
    6.6146   12.0383   25.5913 C   0  0  0  0  0  0  0  0  0  0  0  0
    5.5254   11.7715   26.6247 C   0  0  0  0  0  0  0  0  0  0  0  0
    5.8166   12.4630   27.8876 C   0  0  0  0  0  0  0  0  0  0  0  0
    6.0551   13.0346   28.8696 N   0  0  0  0  0  0  0  0  0  0  0  0
    9.5670   12.3069   24.6114 C   0  0  0  0  0  0  0  0  0  0  0  0
    9.5189   13.8173   25.4159 Cl  0  0  0  0  0  0  0  0  0  0  0  0
   10.5599   12.1620   23.6475 C   0  0  0  0  0  0  0  0  0  0  0  0
  1  2  1  0
  2  3  1  0
  3  4  2  0
  3  5  1  0
  5  6  2  0
  6  7  1  0
  7  8  2  0
  8  9  1  0
  9 10  1  0
 10 11  1  0
 11 12  1  0
 12 13  3  0
  8 14  1  0
 14 15  1  0
 14 16  2  0
 16  5  1  0
M  END
>  <distance_score>  (203) 
0.436881

>  <ref_pdb>  (203) 
A1775a

>  <ref_mols>  (203) 
A1775a

>  <alias>  (203) 
None

>  <original SMILES>  (203) 
CCC(=O)c1ccc(OCCC#N)c(Cl)c1

>  <inchikey>  (203) 
GUVVSYAISZTTOF-UHFFFAOYSA-N

>  <exports>  (203) 
['/opt/xchem-fragalysis-2/maxwin/2A_HIPPO/hippo/A71EV2A_10_recipes/Recipe_1LPVPY0_poses.sdf']

>  <original ID>  (203) 
GUVVSYAISZTTOF-UHFFFAOYSA-N

>  <energy_score>  (203) 
-25.501182

>  <tags>  (203) 
[]

>  <HIPPO ID>  (203) 
119813

>  <name>  (203) 
GUVVSYAISZTTOF-UHFFFAOYSA-N

$$$$
GRHYVZGXRSPKJK-UHFFFAOYSA-N
     RDKit          3D

 16 16  0  0  0  0  0  0  0  0999 V2000
   13.6998   11.5736   20.5392 C   0  0  0  0  0  0  0  0  0  0  0  0
   12.6275   11.9462   21.5628 C   0  0  0  0  0  0  0  0  0  0  0  0
   11.7843   10.7454   22.0035 C   0  0  0  0  0  0  0  0  0  0  0  0
   11.9001    9.6253   21.5115 O   0  0  0  0  0  0  0  0  0  0  0  0
   10.7424   10.9359   23.0403 C   0  0  0  0  0  0  0  0  0  0  0  0
    9.9196    9.8580   23.3844 C   0  0  0  0  0  0  0  0  0  0  0  0
    8.9055   10.0246   24.3259 C   0  0  0  0  0  0  0  0  0  0  0  0
    8.7136   11.2575   24.9445 C   0  0  0  0  0  0  0  0  0  0  0  0
    7.7653   11.3096   25.9330 O   0  0  0  0  0  0  0  0  0  0  0  0
    6.6167   12.0701   25.5602 C   0  0  0  0  0  0  0  0  0  0  0  0
    5.4584   11.7712   26.5093 C   0  0  0  0  0  0  0  0  0  0  0  0
    5.7288   12.2649   27.9286 C   0  0  0  0  0  0  0  0  0  0  0  0
    4.5600   12.1038   28.7833 N   0  0  0  0  0  0  0  0  0  0  0  0
    9.5692   12.3153   24.6273 C   0  0  0  0  0  0  0  0  0  0  0  0
    9.5272   13.8284   25.4282 Cl  0  0  0  0  0  0  0  0  0  0  0  0
   10.5616   12.1656   23.6634 C   0  0  0  0  0  0  0  0  0  0  0  0
  1  2  1  0
  2  3  1  0
  3  4  2  0
  3  5  1  0
  5  6  2  0
  6  7  1  0
  7  8  2  0
  8  9  1  0
  9 10  1  0
 10 11  1  0
 11 12  1  0
 12 13  1  0
  8 14  1  0
 14 15  1  0
 14 16  2  0
 16  5  1  0
M  END
>  <distance_score>  (204) 
0.444147

>  <ref_pdb>  (204) 
A1775a

>  <ref_mols>  (204) 
A1775a

>  <alias>  (204) 
None

>  <original SMILES>  (204) 
CCC(=O)c1ccc(OCCCN)c(Cl)c1

>  <inchikey>  (204) 
GRHYVZGXRSPKJK-UHFFFAOYSA-N

>  <exports>  (204) 
['/opt/xchem-fragalysis-2/maxwin/2A_HIPPO/hippo/A71EV2A_10_recipes/Recipe_1LPVPY0_poses.sdf']

>  <original ID>  (204) 
GRHYVZGXRSPKJK-UHFFFAOYSA-N

>  <energy_score>  (204) 
-11.578371

>  <tags>  (204) 
[]

>  <HIPPO ID>  (204) 
119925

>  <name>  (204) 
GRHYVZGXRSPKJK-UHFFFAOYSA-N

$$$$
JDMSKNIUSWKSGI-UHFFFAOYSA-N
     RDKit          3D

 16 16  0  0  0  0  0  0  0  0999 V2000
    3.5436   13.1853   27.1722 C   0  0  0  0  0  0  0  0  0  0  0  0
    4.6138   13.1602   26.0966 C   0  0  0  0  0  0  0  0  0  0  0  0
    5.8475   12.3717   26.5291 C   0  0  0  0  0  0  0  0  0  0  0  0
    6.8093   12.1882   25.3586 C   0  0  0  0  0  0  0  0  0  0  0  0
    8.1120   11.8890   25.8633 O   0  0  0  0  0  0  0  0  0  0  0  0
    9.0219   11.7178   24.8528 C   0  0  0  0  0  0  0  0  0  0  0  0
    9.8713   12.7602   24.5130 C   0  0  0  0  0  0  0  0  0  0  0  0
   10.8540   12.5528   23.5369 C   0  0  0  0  0  0  0  0  0  0  0  0
   11.0055   11.2910   22.9405 C   0  0  0  0  0  0  0  0  0  0  0  0
   11.9805   10.9510   21.8894 C   0  0  0  0  0  0  0  0  0  0  0  0
   12.0275    9.8015   21.4559 O   0  0  0  0  0  0  0  0  0  0  0  0
   12.8478   12.0597   21.3800 C   0  0  0  0  0  0  0  0  0  0  0  0
   13.8933   11.5982   20.3804 C   0  0  0  0  0  0  0  0  0  0  0  0
   10.1869   10.2523   23.3073 C   0  0  0  0  0  0  0  0  0  0  0  0
    9.2052   10.4868   24.2352 C   0  0  0  0  0  0  0  0  0  0  0  0
    8.2304    9.1710   24.5200 Cl  0  0  0  0  0  0  0  0  0  0  0  0
  1  2  1  0
  2  3  1  0
  3  4  1  0
  4  5  1  0
  5  6  1  0
  6  7  2  0
  7  8  1  0
  8  9  2  0
  9 10  1  0
 10 11  2  0
 10 12  1  0
 12 13  1  0
  9 14  1  0
 14 15  2  0
 15 16  1  0
 15  6  1  0
M  END
>  <distance_score>  (205) 
0.748941

>  <ref_pdb>  (205) 
A1775a

>  <ref_mols>  (205) 
A1775a

>  <alias>  (205) 
None

>  <original SMILES>  (205) 
CCCCOc1ccc(C(=O)CC)cc1Cl

>  <inchikey>  (205) 
JDMSKNIUSWKSGI-UHFFFAOYSA-N

>  <exports>  (205) 
['/opt/xchem-fragalysis-2/maxwin/2A_HIPPO/hippo/A71EV2A_10_recipes/Recipe_1LPVPY0_poses.sdf']

>  <original ID>  (205) 
JDMSKNIUSWKSGI-UHFFFAOYSA-N

>  <energy_score>  (205) 
-7.027064

>  <tags>  (205) 
[]

>  <HIPPO ID>  (205) 
120070

>  <name>  (205) 
JDMSKNIUSWKSGI-UHFFFAOYSA-N

$$$$
KQUSDPDOLYGIEG-UHFFFAOYSA-N
     RDKit          3D

 16 16  0  0  0  0  0  0  0  0999 V2000
    6.4572   12.8622   24.5621 C   0  0  0  0  0  0  0  0  0  0  0  0
    6.8391   12.1270   25.6173 C   0  0  0  0  0  0  0  0  0  0  0  0
    5.8245   11.5117   26.5529 C   0  0  0  0  0  0  0  0  0  0  0  0
    6.0092   12.2107   28.5474 I   0  0  0  0  0  0  0  0  0  0  0  0
    8.1627   11.8275   25.9123 O   0  0  0  0  0  0  0  0  0  0  0  0
    9.0653   11.6888   24.8858 C   0  0  0  0  0  0  0  0  0  0  0  0
    9.9308   12.7265   24.5702 C   0  0  0  0  0  0  0  0  0  0  0  0
   10.8985   12.5286   23.5783 C   0  0  0  0  0  0  0  0  0  0  0  0
   11.0203   11.2802   22.9465 C   0  0  0  0  0  0  0  0  0  0  0  0
   11.9874   10.9469   21.8865 C   0  0  0  0  0  0  0  0  0  0  0  0
   12.0314    9.7996   21.4472 O   0  0  0  0  0  0  0  0  0  0  0  0
   12.8513   12.0581   21.3774 C   0  0  0  0  0  0  0  0  0  0  0  0
   13.8952   11.5994   20.3752 C   0  0  0  0  0  0  0  0  0  0  0  0
   10.1840   10.2467   23.2895 C   0  0  0  0  0  0  0  0  0  0  0  0
    9.2164   10.4734   24.2326 C   0  0  0  0  0  0  0  0  0  0  0  0
    8.2249    9.1686   24.5086 Cl  0  0  0  0  0  0  0  0  0  0  0  0
  1  2  2  0
  2  3  1  0
  3  4  1  0
  2  5  1  0
  5  6  1  0
  6  7  2  0
  7  8  1  0
  8  9  2  0
  9 10  1  0
 10 11  2  0
 10 12  1  0
 12 13  1  0
  9 14  1  0
 14 15  2  0
 15 16  1  0
 15  6  1  0
M  END
>  <distance_score>  (206) 
0.741027

>  <ref_pdb>  (206) 
A1775a

>  <ref_mols>  (206) 
A1775a

>  <alias>  (206) 
None

>  <original SMILES>  (206) 
C=C(CI)Oc1ccc(C(=O)CC)cc1Cl

>  <inchikey>  (206) 
KQUSDPDOLYGIEG-UHFFFAOYSA-N

>  <exports>  (206) 
['/opt/xchem-fragalysis-2/maxwin/2A_HIPPO/hippo/A71EV2A_10_recipes/Recipe_1LPVPY0_poses.sdf']

>  <original ID>  (206) 
KQUSDPDOLYGIEG-UHFFFAOYSA-N

>  <energy_score>  (206) 
-19.706921

>  <tags>  (206) 
[]

>  <HIPPO ID>  (206) 
120298

>  <name>  (206) 
KQUSDPDOLYGIEG-UHFFFAOYSA-N

$$$$
LFFDOAUEQOYWAZ-UHFFFAOYSA-N
     RDKit          3D

 16 16  0  0  0  0  0  0  0  0999 V2000
    4.7213   13.0816   26.5015 C   0  0  0  0  0  0  0  0  0  0  0  0
    5.7165   12.1819   26.4646 C   0  0  0  0  0  0  0  0  0  0  0  0
    5.4709   10.5021   27.2475 Br  0  0  0  0  0  0  0  0  0  0  0  0
    7.0397   12.4770   25.7933 C   0  0  0  0  0  0  0  0  0  0  0  0
    7.8036   11.3181   25.5305 O   0  0  0  0  0  0  0  0  0  0  0  0
    8.8878   11.4267   24.7071 C   0  0  0  0  0  0  0  0  0  0  0  0
    9.6257   12.5591   24.3956 C   0  0  0  0  0  0  0  0  0  0  0  0
   10.6910   12.4566   23.4763 C   0  0  0  0  0  0  0  0  0  0  0  0
   11.0303   11.2143   22.9164 C   0  0  0  0  0  0  0  0  0  0  0  0
   12.0195   10.9508   21.8606 C   0  0  0  0  0  0  0  0  0  0  0  0
   12.1054    9.8179   21.3887 O   0  0  0  0  0  0  0  0  0  0  0  0
   12.8524   12.0905   21.3850 C   0  0  0  0  0  0  0  0  0  0  0  0
   13.9129   11.6489   20.3851 C   0  0  0  0  0  0  0  0  0  0  0  0
   10.3539   10.0889   23.2907 C   0  0  0  0  0  0  0  0  0  0  0  0
    9.2877   10.2316   24.1273 C   0  0  0  0  0  0  0  0  0  0  0  0
    8.3896    8.8498   24.2697 Cl  0  0  0  0  0  0  0  0  0  0  0  0
  1  2  2  0
  2  3  1  0
  2  4  1  0
  4  5  1  0
  5  6  1  0
  6  7  2  0
  7  8  1  0
  8  9  2  0
  9 10  1  0
 10 11  2  0
 10 12  1  0
 12 13  1  0
  9 14  1  0
 14 15  2  0
 15 16  1  0
 15  6  1  0
M  END
>  <distance_score>  (207) 
0.583183

>  <ref_pdb>  (207) 
A1775a

>  <ref_mols>  (207) 
A1775a

>  <alias>  (207) 
None

>  <original SMILES>  (207) 
C=C(Br)COc1ccc(C(=O)CC)cc1Cl

>  <inchikey>  (207) 
LFFDOAUEQOYWAZ-UHFFFAOYSA-N

>  <exports>  (207) 
['/opt/xchem-fragalysis-2/maxwin/2A_HIPPO/hippo/A71EV2A_10_recipes/Recipe_1LPVPY0_poses.sdf']

>  <original ID>  (207) 
LFFDOAUEQOYWAZ-UHFFFAOYSA-N

>  <energy_score>  (207) 
0.270801

>  <tags>  (207) 
[]

>  <HIPPO ID>  (207) 
120416

>  <name>  (207) 
LFFDOAUEQOYWAZ-UHFFFAOYSA-N

$$$$
VHBPFCUOFQAYGZ-UHFFFAOYSA-N
     RDKit          3D

 16 16  0  0  0  0  0  0  0  0999 V2000
   13.6645   11.6172   20.5824 C   0  0  0  0  0  0  0  0  0  0  0  0
   12.5901   11.9884   21.6123 C   0  0  0  0  0  0  0  0  0  0  0  0
   11.7690   10.7737   22.0340 C   0  0  0  0  0  0  0  0  0  0  0  0
   11.9196    9.6624   21.5262 O   0  0  0  0  0  0  0  0  0  0  0  0
   10.7113   10.9232   23.0618 C   0  0  0  0  0  0  0  0  0  0  0  0
    9.9846    9.7804   23.3995 C   0  0  0  0  0  0  0  0  0  0  0  0
    8.9223    9.8745   24.2854 C   0  0  0  0  0  0  0  0  0  0  0  0
    8.5786   11.0933   24.8609 C   0  0  0  0  0  0  0  0  0  0  0  0
    7.5190   11.0294   25.7168 O   0  0  0  0  0  0  0  0  0  0  0  0
    6.8063   12.2419   25.9415 C   0  0  0  0  0  0  0  0  0  0  0  0
    5.5495   11.8919   26.7262 C   0  0  0  0  0  0  0  0  0  0  0  0
    4.6379   13.0817   26.9936 C   0  0  0  0  0  0  0  0  0  0  0  0
    3.7002   13.3014   25.9489 O   0  0  0  0  0  0  0  0  0  0  0  0
    4.1484   14.1550   24.9005 C   0  0  0  0  0  0  0  0  0  0  0  0
    9.3249   12.2295   24.5585 C   0  0  0  0  0  0  0  0  0  0  0  0
   10.3871   12.1483   23.6508 C   0  0  0  0  0  0  0  0  0  0  0  0
  1  2  1  0
  2  3  1  0
  3  4  2  0
  3  5  1  0
  5  6  2  0
  6  7  1  0
  7  8  2  0
  8  9  1  0
  9 10  1  0
 10 11  1  0
 11 12  1  0
 12 13  1  0
 13 14  1  0
  8 15  1  0
 15 16  2  0
 16  5  1  0
M  END
>  <distance_score>  (208) 
0.362822

>  <ref_pdb>  (208) 
A1775a

>  <ref_mols>  (208) 
A1775a

>  <alias>  (208) 
None

>  <original SMILES>  (208) 
CCC(=O)c1ccc(OCCCOC)cc1

>  <inchikey>  (208) 
VHBPFCUOFQAYGZ-UHFFFAOYSA-N

>  <exports>  (208) 
['/opt/xchem-fragalysis-2/maxwin/2A_HIPPO/hippo/A71EV2A_10_recipes/Recipe_1LPVPY0_poses.sdf']

>  <original ID>  (208) 
VHBPFCUOFQAYGZ-UHFFFAOYSA-N

>  <energy_score>  (208) 
-23.907423

>  <tags>  (208) 
[]

>  <HIPPO ID>  (208) 
120488

>  <name>  (208) 
VHBPFCUOFQAYGZ-UHFFFAOYSA-N

$$$$
GYIZZRKRFWRSLL-UHFFFAOYSA-N
     RDKit          3D

 16 17  0  0  0  0  0  0  0  0999 V2000
    3.4616   14.5725   27.4278 C   0  0  0  0  0  0  0  0  0  0  0  0
    4.6915   13.8718   27.2266 O   0  0  0  0  0  0  0  0  0  0  0  0
    4.4835   12.7868   26.3303 C   0  0  0  0  0  0  0  0  0  0  0  0
    5.6026   11.7761   26.4788 C   0  0  0  0  0  0  0  0  0  0  0  0
    6.8751   12.1969   25.7640 C   0  0  0  0  0  0  0  0  0  0  0  0
    7.7001   11.0357   25.7162 O   0  0  0  0  0  0  0  0  0  0  0  0
    8.7087   11.0562   24.7990 C   0  0  0  0  0  0  0  0  0  0  0  0
    9.0001    9.8039   24.2319 C   0  0  0  0  0  0  0  0  0  0  0  0
   10.0320    9.6483   23.3214 C   0  0  0  0  0  0  0  0  0  0  0  0
   10.7365   10.7834   22.9971 C   0  0  0  0  0  0  0  0  0  0  0  0
   10.4767   12.0361   23.5387 C   0  0  0  0  0  0  0  0  0  0  0  0
    9.4571   12.1867   24.4639 C   0  0  0  0  0  0  0  0  0  0  0  0
   11.3940   13.0842   22.9926 C   0  0  0  0  0  0  0  0  0  0  0  0
   12.2598   12.3488   21.9755 C   0  0  0  0  0  0  0  0  0  0  0  0
   11.8057   10.9074   22.0327 C   0  0  0  0  0  0  0  0  0  0  0  0
   12.2135    9.9617   21.3817 O   0  0  0  0  0  0  0  0  0  0  0  0
  1  2  1  0
  2  3  1  0
  3  4  1  0
  4  5  1  0
  5  6  1  0
  6  7  1  0
  7  8  2  0
  8  9  1  0
  9 10  2  0
 10 11  1  0
 11 12  2  0
 11 13  1  0
 13 14  1  0
 14 15  1  0
 15 16  2  0
 12  7  1  0
 15 10  1  0
M  END
>  <distance_score>  (209) 
1.11581

>  <ref_pdb>  (209) 
A1775a

>  <ref_mols>  (209) 
A1775a

>  <alias>  (209) 
None

>  <original SMILES>  (209) 
COCCCOc1ccc2c(c1)CCC2=O

>  <inchikey>  (209) 
GYIZZRKRFWRSLL-UHFFFAOYSA-N

>  <exports>  (209) 
['/opt/xchem-fragalysis-2/maxwin/2A_HIPPO/hippo/A71EV2A_10_recipes/Recipe_1LPVPY0_poses.sdf']

>  <original ID>  (209) 
GYIZZRKRFWRSLL-UHFFFAOYSA-N

>  <energy_score>  (209) 
-13.380399

>  <tags>  (209) 
[]

>  <HIPPO ID>  (209) 
120489

>  <name>  (209) 
GYIZZRKRFWRSLL-UHFFFAOYSA-N

$$$$
HMLNSEKCFWROJB-HWKANZROSA-N
     RDKit          3D

 16 16  0  0  0  0  0  0  0  0999 V2000
    3.9776   10.4692   27.8641 C   0  0  0  0  0  0  0  0  0  0  0  0
    5.2123   10.7067   27.0585 C   0  0  0  0  0  0  0  0  0  0  0  0
    5.4975   11.8637   26.4425 C   0  0  0  0  0  0  0  0  0  0  0  0
    6.7561   12.1961   25.6945 C   0  0  0  0  0  0  0  0  0  0  0  0
    7.6994   11.1317   25.7633 O   0  0  0  0  0  0  0  0  0  0  0  0
    8.7137   11.1665   24.8470 C   0  0  0  0  0  0  0  0  0  0  0  0
    8.9623    9.9356   24.2385 C   0  0  0  0  0  0  0  0  0  0  0  0
    9.9939    9.7875   23.3176 C   0  0  0  0  0  0  0  0  0  0  0  0
   10.7871   10.8852   22.9802 C   0  0  0  0  0  0  0  0  0  0  0  0
   11.8366   10.7193   21.9509 C   0  0  0  0  0  0  0  0  0  0  0  0
   11.9696    9.6031   21.4548 O   0  0  0  0  0  0  0  0  0  0  0  0
   12.6655   11.9323   21.5229 C   0  0  0  0  0  0  0  0  0  0  0  0
   13.7465   11.5755   20.5048 C   0  0  0  0  0  0  0  0  0  0  0  0
   10.5664   12.1099   23.5973 C   0  0  0  0  0  0  0  0  0  0  0  0
    9.5528   12.2437   24.5443 C   0  0  0  0  0  0  0  0  0  0  0  0
    9.5121   13.7664   25.3305 Cl  0  0  0  0  0  0  0  0  0  0  0  0
  1  2  1  0
  2  3  2  0
  3  4  1  0
  4  5  1  0
  5  6  1  0
  6  7  2  0
  7  8  1  0
  8  9  2  0
  9 10  1  0
 10 11  2  0
 10 12  1  0
 12 13  1  0
  9 14  1  0
 14 15  2  0
 15 16  1  0
 15  6  1  0
M  END
>  <distance_score>  (210) 
0.371304

>  <ref_pdb>  (210) 
A1775a

>  <ref_mols>  (210) 
A1775a

>  <alias>  (210) 
None

>  <original SMILES>  (210) 
C/C=C/COc1ccc(C(=O)CC)cc1Cl

>  <inchikey>  (210) 
HMLNSEKCFWROJB-HWKANZROSA-N

>  <exports>  (210) 
['/opt/xchem-fragalysis-2/maxwin/2A_HIPPO/hippo/A71EV2A_10_recipes/Recipe_1LPVPY0_poses.sdf']

>  <original ID>  (210) 
HMLNSEKCFWROJB-HWKANZROSA-N

>  <energy_score>  (210) 
-6.628932

>  <tags>  (210) 
[]

>  <HIPPO ID>  (210) 
121475

>  <name>  (210) 
HMLNSEKCFWROJB-HWKANZROSA-N

$$$$
RKWMGFJNNMNMEY-UHFFFAOYSA-N
     RDKit          3D

 16 17  0  0  0  0  0  0  0  0999 V2000
   11.8430   10.0870   21.6969 O   0  0  0  0  0  0  0  0  0  0  0  0
   11.5671   11.1551   22.2544 C   0  0  0  0  0  0  0  0  0  0  0  0
   12.3263   12.4259   21.9128 C   0  0  0  0  0  0  0  0  0  0  0  0
   11.5925   13.7191   21.5638 C   0  0  0  0  0  0  0  0  0  0  0  0
   10.4211   14.0837   22.4339 C   0  0  0  0  0  0  0  0  0  0  0  0
   10.6771   13.6618   23.8647 C   0  0  0  0  0  0  0  0  0  0  0  0
   10.1233   12.2795   24.0475 C   0  0  0  0  0  0  0  0  0  0  0  0
    9.0478   12.1733   24.9372 C   0  0  0  0  0  0  0  0  0  0  0  0
    8.3282   10.9981   25.0546 C   0  0  0  0  0  0  0  0  0  0  0  0
    7.2080   10.8562   25.8194 O   0  0  0  0  0  0  0  0  0  0  0  0
    6.4860   12.0623   26.0919 C   0  0  0  0  0  0  0  0  0  0  0  0
    5.2709   11.7310   26.9318 C   0  0  0  0  0  0  0  0  0  0  0  0
    5.6604   11.6688   28.2376 F   0  0  0  0  0  0  0  0  0  0  0  0
    8.7623    9.8726   24.3688 C   0  0  0  0  0  0  0  0  0  0  0  0
    9.8574    9.9371   23.5158 C   0  0  0  0  0  0  0  0  0  0  0  0
   10.5211   11.1516   23.3109 C   0  0  0  0  0  0  0  0  0  0  0  0
  1  2  2  0
  2  3  1  0
  3  4  1  0
  4  5  1  0
  5  6  1  0
  6  7  1  0
  7  8  2  0
  8  9  1  0
  9 10  1  0
 10 11  1  0
 11 12  1  0
 12 13  1  0
  9 14  2  0
 14 15  1  0
 15 16  2  0
 16  2  1  0
 16  7  1  0
M  END
>  <distance_score>  (211) 
1.119241

>  <ref_pdb>  (211) 
A1775a

>  <ref_mols>  (211) 
A1775a

>  <alias>  (211) 
None

>  <original SMILES>  (211) 
O=C1CCCCc2cc(OCCF)ccc21

>  <inchikey>  (211) 
RKWMGFJNNMNMEY-UHFFFAOYSA-N

>  <exports>  (211) 
['/opt/xchem-fragalysis-2/maxwin/2A_HIPPO/hippo/A71EV2A_10_recipes/Recipe_1LPVPY0_poses.sdf']

>  <original ID>  (211) 
RKWMGFJNNMNMEY-UHFFFAOYSA-N

>  <energy_score>  (211) 
-13.072561

>  <tags>  (211) 
[]

>  <HIPPO ID>  (211) 
121687

>  <name>  (211) 
RKWMGFJNNMNMEY-UHFFFAOYSA-N

$$$$
NNHVJICKBQAWMO-UHFFFAOYSA-N
     RDKit          3D

 17 18  0  0  0  0  0  0  0  0999 V2000
    7.3991   12.6486   27.2239 C   0  0  0  0  0  0  0  0  0  0  0  0
    6.3789   12.0673   26.5699 C   0  0  0  0  0  0  0  0  0  0  0  0
    5.0228   11.9701   27.1993 C   0  0  0  0  0  0  0  0  0  0  0  0
    4.9457   10.1890   28.3562 I   0  0  0  0  0  0  0  0  0  0  0  0
    6.4437   11.5126   25.2980 O   0  0  0  0  0  0  0  0  0  0  0  0
    7.6468   11.5865   24.6656 C   0  0  0  0  0  0  0  0  0  0  0  0
    8.0251   12.7651   24.0352 C   0  0  0  0  0  0  0  0  0  0  0  0
    9.3448   12.9430   23.6783 C   0  0  0  0  0  0  0  0  0  0  0  0
   10.1956   11.8564   23.7993 C   0  0  0  0  0  0  0  0  0  0  0  0
    9.7331   10.5901   24.1463 C   0  0  0  0  0  0  0  0  0  0  0  0
    8.4545   10.4686   24.6483 C   0  0  0  0  0  0  0  0  0  0  0  0
   10.5315    9.3788   23.8343 C   0  0  0  0  0  0  0  0  0  0  0  0
   10.7269    9.3396   22.3420 C   0  0  0  0  0  0  0  0  0  0  0  0
   11.9034   10.1481   21.8426 C   0  0  0  0  0  0  0  0  0  0  0  0
   11.9846   11.6500   22.0917 C   0  0  0  0  0  0  0  0  0  0  0  0
   11.5917   12.0445   23.4577 C   0  0  0  0  0  0  0  0  0  0  0  0
   12.3194   12.5998   24.2620 O   0  0  0  0  0  0  0  0  0  0  0  0
  1  2  2  0
  2  3  1  0
  3  4  1  0
  2  5  1  0
  5  6  1  0
  6  7  2  0
  7  8  1  0
  8  9  2  0
  9 10  1  0
 10 11  2  0
 10 12  1  0
 12 13  1  0
 13 14  1  0
 14 15  1  0
 15 16  1  0
 16 17  2  0
 11  6  1  0
 16  9  1  0
M  END
>  <distance_score>  (212) 
1.87256

>  <ref_pdb>  (212) 
A1775a

>  <ref_mols>  (212) 
A1775a

>  <alias>  (212) 
None

>  <original SMILES>  (212) 
C=C(CI)Oc1ccc2c(c1)CCCCC2=O

>  <inchikey>  (212) 
NNHVJICKBQAWMO-UHFFFAOYSA-N

>  <exports>  (212) 
['/opt/xchem-fragalysis-2/maxwin/2A_HIPPO/hippo/A71EV2A_10_recipes/Recipe_1LPVPY0_poses.sdf']

>  <original ID>  (212) 
NNHVJICKBQAWMO-UHFFFAOYSA-N

>  <energy_score>  (212) 
-150.217945

>  <tags>  (212) 
[]

>  <HIPPO ID>  (212) 
122233

>  <name>  (212) 
NNHVJICKBQAWMO-UHFFFAOYSA-N

$$$$
MPNXBQXTGQPNLL-UHFFFAOYSA-N
     RDKit          3D

 17 18  0  0  0  0  0  0  0  0999 V2000
    5.3026   10.9524   28.0644 C   0  0  0  0  0  0  0  0  0  0  0  0
    5.2674   11.8270   27.0546 C   0  0  0  0  0  0  0  0  0  0  0  0
    3.8189   12.9833   26.8370 Br  0  0  0  0  0  0  0  0  0  0  0  0
    6.3272   12.0128   26.0185 C   0  0  0  0  0  0  0  0  0  0  0  0
    7.0770   10.8202   25.7614 O   0  0  0  0  0  0  0  0  0  0  0  0
    8.0955   10.9887   24.8638 C   0  0  0  0  0  0  0  0  0  0  0  0
    8.8158    9.8716   24.4748 C   0  0  0  0  0  0  0  0  0  0  0  0
    9.9268    9.9854   23.6486 C   0  0  0  0  0  0  0  0  0  0  0  0
   10.2740   11.2315   23.1270 C   0  0  0  0  0  0  0  0  0  0  0  0
    9.4539   12.3362   23.3735 C   0  0  0  0  0  0  0  0  0  0  0  0
    8.4060   12.1987   24.2754 C   0  0  0  0  0  0  0  0  0  0  0  0
    9.4921   13.6478   22.6476 C   0  0  0  0  0  0  0  0  0  0  0  0
   10.7526   14.4031   22.9019 C   0  0  0  0  0  0  0  0  0  0  0  0
   11.8055   13.8732   21.9780 C   0  0  0  0  0  0  0  0  0  0  0  0
   12.3522   12.5293   22.3863 C   0  0  0  0  0  0  0  0  0  0  0  0
   11.4931   11.2846   22.3043 C   0  0  0  0  0  0  0  0  0  0  0  0
   11.8453   10.2682   21.7000 O   0  0  0  0  0  0  0  0  0  0  0  0
  1  2  2  0
  2  3  1  0
  2  4  1  0
  4  5  1  0
  5  6  1  0
  6  7  2  0
  7  8  1  0
  8  9  2  0
  9 10  1  0
 10 11  2  0
 10 12  1  0
 12 13  1  0
 13 14  1  0
 14 15  1  0
 15 16  1  0
 16 17  2  0
 11  6  1  0
 16  9  1  0
M  END
>  <distance_score>  (213) 
1.267246

>  <ref_pdb>  (213) 
A1775a

>  <ref_mols>  (213) 
A1775a

>  <alias>  (213) 
None

>  <original SMILES>  (213) 
C=C(Br)COc1ccc2c(c1)CCCCC2=O

>  <inchikey>  (213) 
MPNXBQXTGQPNLL-UHFFFAOYSA-N

>  <exports>  (213) 
['/opt/xchem-fragalysis-2/maxwin/2A_HIPPO/hippo/A71EV2A_10_recipes/Recipe_1LPVPY0_poses.sdf']

>  <original ID>  (213) 
MPNXBQXTGQPNLL-UHFFFAOYSA-N

>  <energy_score>  (213) 
-17.035524

>  <tags>  (213) 
[]

>  <HIPPO ID>  (213) 
123424

>  <name>  (213) 
MPNXBQXTGQPNLL-UHFFFAOYSA-N

$$$$
PSPXCHCWXHFSMV-UHFFFAOYSA-N
     RDKit          3D

 17 17  0  0  0  0  0  0  0  0999 V2000
   13.9190   11.6492   20.3771 C   0  0  0  0  0  0  0  0  0  0  0  0
   12.8592   12.0873   21.3784 C   0  0  0  0  0  0  0  0  0  0  0  0
   12.0286   10.9458   21.8528 C   0  0  0  0  0  0  0  0  0  0  0  0
   12.1137    9.8147   21.3766 O   0  0  0  0  0  0  0  0  0  0  0  0
   11.0458   11.2060   22.9147 C   0  0  0  0  0  0  0  0  0  0  0  0
   10.7427   12.4406   23.5122 C   0  0  0  0  0  0  0  0  0  0  0  0
    9.6984   12.5395   24.4536 C   0  0  0  0  0  0  0  0  0  0  0  0
    8.9461   11.4126   24.7489 C   0  0  0  0  0  0  0  0  0  0  0  0
    7.8894   11.3076   25.6061 O   0  0  0  0  0  0  0  0  0  0  0  0
    7.1047   12.4561   25.8349 C   0  0  0  0  0  0  0  0  0  0  0  0
    5.6706   12.0906   26.2048 C   0  0  0  0  0  0  0  0  0  0  0  0
    5.5320   10.8700   27.1062 C   0  0  0  0  0  0  0  0  0  0  0  0
    4.1731   10.4809   27.3132 O   0  0  0  0  0  0  0  0  0  0  0  0
    3.3871   11.4381   28.0039 C   0  0  0  0  0  0  0  0  0  0  0  0
    9.3043   10.2255   24.1287 C   0  0  0  0  0  0  0  0  0  0  0  0
    8.3887    8.8549   24.2693 Cl  0  0  0  0  0  0  0  0  0  0  0  0
   10.3478   10.0855   23.2646 C   0  0  0  0  0  0  0  0  0  0  0  0
  1  2  1  0
  2  3  1  0
  3  4  2  0
  3  5  1  0
  5  6  2  0
  6  7  1  0
  7  8  2  0
  8  9  1  0
  9 10  1  0
 10 11  1  0
 11 12  1  0
 12 13  1  0
 13 14  1  0
  8 15  1  0
 15 16  1  0
 15 17  2  0
 17  5  1  0
M  END
>  <distance_score>  (214) 
0.591226

>  <ref_pdb>  (214) 
A1775a

>  <ref_mols>  (214) 
A1775a

>  <alias>  (214) 
None

>  <original SMILES>  (214) 
CCC(=O)c1ccc(OCCCOC)c(Cl)c1

>  <inchikey>  (214) 
PSPXCHCWXHFSMV-UHFFFAOYSA-N

>  <exports>  (214) 
['/opt/xchem-fragalysis-2/maxwin/2A_HIPPO/hippo/A71EV2A_10_recipes/Recipe_1LPVPY0_poses.sdf']

>  <original ID>  (214) 
PSPXCHCWXHFSMV-UHFFFAOYSA-N

>  <energy_score>  (214) 
-1.99055

>  <tags>  (214) 
[]

>  <HIPPO ID>  (214) 
123665

>  <name>  (214) 
PSPXCHCWXHFSMV-UHFFFAOYSA-N

$$$$
USMAETIWTSUFLG-UHFFFAOYSA-N
     RDKit          3D

 17 18  0  0  0  0  0  0  0  0999 V2000
    3.5741   11.0163   28.0419 C   0  0  0  0  0  0  0  0  0  0  0  0
    4.6298   11.2245   26.9699 C   0  0  0  0  0  0  0  0  0  0  0  0
    5.8531   11.8909   27.5651 C   0  0  0  0  0  0  0  0  0  0  0  0
    6.9020   12.1867   26.5153 C   0  0  0  0  0  0  0  0  0  0  0  0
    7.3249   10.9754   25.8907 O   0  0  0  0  0  0  0  0  0  0  0  0
    8.4169   11.0819   25.0802 C   0  0  0  0  0  0  0  0  0  0  0  0
    8.7956    9.9440   24.3822 C   0  0  0  0  0  0  0  0  0  0  0  0
    9.8737    9.9775   23.5033 C   0  0  0  0  0  0  0  0  0  0  0  0
   10.5708   11.1724   23.2838 C   0  0  0  0  0  0  0  0  0  0  0  0
   10.2192   12.3125   24.0198 C   0  0  0  0  0  0  0  0  0  0  0  0
    9.1547   12.2413   24.9192 C   0  0  0  0  0  0  0  0  0  0  0  0
   10.7967   13.6820   23.8245 C   0  0  0  0  0  0  0  0  0  0  0  0
   10.4746   14.1088   22.4112 C   0  0  0  0  0  0  0  0  0  0  0  0
   11.5971   13.7204   21.4912 C   0  0  0  0  0  0  0  0  0  0  0  0
   12.3431   12.4220   21.8205 C   0  0  0  0  0  0  0  0  0  0  0  0
   11.5973   11.1539   22.2104 C   0  0  0  0  0  0  0  0  0  0  0  0
   11.8660   10.0725   21.6761 O   0  0  0  0  0  0  0  0  0  0  0  0
  1  2  1  0
  2  3  1  0
  3  4  1  0
  4  5  1  0
  5  6  1  0
  6  7  2  0
  7  8  1  0
  8  9  2  0
  9 10  1  0
 10 11  2  0
 10 12  1  0
 12 13  1  0
 13 14  1  0
 14 15  1  0
 15 16  1  0
 16 17  2  0
 11  6  1  0
 16  9  1  0
M  END
>  <distance_score>  (215) 
1.126948

>  <ref_pdb>  (215) 
A1775a

>  <ref_mols>  (215) 
A1775a

>  <alias>  (215) 
None

>  <original SMILES>  (215) 
CCCCOc1ccc2c(c1)CCCCC2=O

>  <inchikey>  (215) 
USMAETIWTSUFLG-UHFFFAOYSA-N

>  <exports>  (215) 
['/opt/xchem-fragalysis-2/maxwin/2A_HIPPO/hippo/A71EV2A_10_recipes/Recipe_1LPVPY0_poses.sdf']

>  <original ID>  (215) 
USMAETIWTSUFLG-UHFFFAOYSA-N

>  <energy_score>  (215) 
-18.332366

>  <tags>  (215) 
[]

>  <HIPPO ID>  (215) 
124892

>  <name>  (215) 
USMAETIWTSUFLG-UHFFFAOYSA-N

$$$$
PXWNPEYUDVBMRO-UHFFFAOYSA-N
     RDKit          3D

 17 18  0  0  0  0  0  0  0  0999 V2000
    4.1158   11.0554   28.8428 N   0  0  0  0  0  0  0  0  0  0  0  0
    5.4216   11.1544   28.2019 C   0  0  0  0  0  0  0  0  0  0  0  0
    5.2858   11.9414   26.9063 C   0  0  0  0  0  0  0  0  0  0  0  0
    6.6279   12.1658   26.2380 C   0  0  0  0  0  0  0  0  0  0  0  0
    7.2044   10.9224   25.8316 O   0  0  0  0  0  0  0  0  0  0  0  0
    8.3348   11.0319   25.0716 C   0  0  0  0  0  0  0  0  0  0  0  0
    8.7514    9.8979   24.3893 C   0  0  0  0  0  0  0  0  0  0  0  0
    9.8453    9.9450   23.5304 C   0  0  0  0  0  0  0  0  0  0  0  0
   10.5146   11.1535   23.3047 C   0  0  0  0  0  0  0  0  0  0  0  0
   10.1211   12.2932   24.0234 C   0  0  0  0  0  0  0  0  0  0  0  0
    9.0662   12.1982   24.9353 C   0  0  0  0  0  0  0  0  0  0  0  0
   10.6452   13.6796   23.7993 C   0  0  0  0  0  0  0  0  0  0  0  0
   10.4083   14.0549   22.3537 C   0  0  0  0  0  0  0  0  0  0  0  0
   11.6145   13.7001   21.5319 C   0  0  0  0  0  0  0  0  0  0  0  0
   12.3348   12.4067   21.9076 C   0  0  0  0  0  0  0  0  0  0  0  0
   11.5615   11.1427   22.2481 C   0  0  0  0  0  0  0  0  0  0  0  0
   11.8300   10.0711   21.6940 O   0  0  0  0  0  0  0  0  0  0  0  0
  1  2  1  0
  2  3  1  0
  3  4  1  0
  4  5  1  0
  5  6  1  0
  6  7  2  0
  7  8  1  0
  8  9  2  0
  9 10  1  0
 10 11  2  0
 10 12  1  0
 12 13  1  0
 13 14  1  0
 14 15  1  0
 15 16  1  0
 16 17  2  0
 11  6  1  0
 16  9  1  0
M  END
>  <distance_score>  (216) 
1.101296

>  <ref_pdb>  (216) 
A1775a

>  <ref_mols>  (216) 
A1775a

>  <alias>  (216) 
None

>  <original SMILES>  (216) 
NCCCOc1ccc2c(c1)CCCCC2=O

>  <inchikey>  (216) 
PXWNPEYUDVBMRO-UHFFFAOYSA-N

>  <exports>  (216) 
['/opt/xchem-fragalysis-2/maxwin/2A_HIPPO/hippo/A71EV2A_10_recipes/Recipe_1LPVPY0_poses.sdf']

>  <original ID>  (216) 
PXWNPEYUDVBMRO-UHFFFAOYSA-N

>  <energy_score>  (216) 
-25.419491

>  <tags>  (216) 
[]

>  <HIPPO ID>  (216) 
125290

>  <name>  (216) 
PXWNPEYUDVBMRO-UHFFFAOYSA-N

$$$$
FBFOOAHCDZPXDT-NSCUHMNNSA-N
     RDKit          3D

 17 18  0  0  0  0  0  0  0  0999 V2000
    3.1040   13.2366   26.6563 C   0  0  0  0  0  0  0  0  0  0  0  0
    4.2873   12.4101   27.0263 C   0  0  0  0  0  0  0  0  0  0  0  0
    5.4126   12.3293   26.3028 C   0  0  0  0  0  0  0  0  0  0  0  0
    6.5945   11.5306   26.7350 C   0  0  0  0  0  0  0  0  0  0  0  0
    6.9610   10.6342   25.6942 O   0  0  0  0  0  0  0  0  0  0  0  0
    8.1222   10.8501   25.0231 C   0  0  0  0  0  0  0  0  0  0  0  0
    8.6444    9.7518   24.3521 C   0  0  0  0  0  0  0  0  0  0  0  0
    9.7771    9.8586   23.5660 C   0  0  0  0  0  0  0  0  0  0  0  0
   10.4114   11.0917   23.4390 C   0  0  0  0  0  0  0  0  0  0  0  0
    9.9423   12.1980   24.1788 C   0  0  0  0  0  0  0  0  0  0  0  0
    8.7717   12.0630   24.9328 C   0  0  0  0  0  0  0  0  0  0  0  0
   10.5921   13.5526   24.2621 C   0  0  0  0  0  0  0  0  0  0  0  0
   12.0922   13.4365   24.3739 C   0  0  0  0  0  0  0  0  0  0  0  0
   12.6851   13.3536   22.9967 C   0  0  0  0  0  0  0  0  0  0  0  0
   11.9885   12.4885   21.9818 C   0  0  0  0  0  0  0  0  0  0  0  0
   11.4939   11.1400   22.4263 C   0  0  0  0  0  0  0  0  0  0  0  0
   11.8643   10.1006   21.8748 O   0  0  0  0  0  0  0  0  0  0  0  0
  1  2  1  0
  2  3  2  0
  3  4  1  0
  4  5  1  0
  5  6  1  0
  6  7  2  0
  7  8  1  0
  8  9  2  0
  9 10  1  0
 10 11  2  0
 10 12  1  0
 12 13  1  0
 13 14  1  0
 14 15  1  0
 15 16  1  0
 16 17  2  0
 11  6  1  0
 16  9  1  0
M  END
>  <distance_score>  (217) 
1.174344

>  <ref_pdb>  (217) 
A1775a

>  <ref_mols>  (217) 
A1775a

>  <alias>  (217) 
None

>  <original SMILES>  (217) 
C/C=C/COc1ccc2c(c1)CCCCC2=O

>  <inchikey>  (217) 
FBFOOAHCDZPXDT-NSCUHMNNSA-N

>  <exports>  (217) 
['/opt/xchem-fragalysis-2/maxwin/2A_HIPPO/hippo/A71EV2A_10_recipes/Recipe_1LPVPY0_poses.sdf']

>  <original ID>  (217) 
FBFOOAHCDZPXDT-NSCUHMNNSA-N

>  <energy_score>  (217) 
-25.154075

>  <tags>  (217) 
[]

>  <HIPPO ID>  (217) 
125484

>  <name>  (217) 
FBFOOAHCDZPXDT-NSCUHMNNSA-N

$$$$
UIJWFKGEOHDYTR-UHFFFAOYSA-N
     RDKit          3D

 17 18  0  0  0  0  0  0  0  0999 V2000
    5.6969    9.7305   28.8760 N   0  0  0  0  0  0  0  0  0  0  0  0
    5.3849   10.5092   28.0768 C   0  0  0  0  0  0  0  0  0  0  0  0
    5.0328   11.5226   27.0857 C   0  0  0  0  0  0  0  0  0  0  0  0
    6.2854   12.0782   26.4573 C   0  0  0  0  0  0  0  0  0  0  0  0
    6.9156   11.0408   25.7001 O   0  0  0  0  0  0  0  0  0  0  0  0
    8.1343   11.3598   25.1841 C   0  0  0  0  0  0  0  0  0  0  0  0
    8.7353   12.6006   25.3520 C   0  0  0  0  0  0  0  0  0  0  0  0
    9.9426   12.8815   24.7659 C   0  0  0  0  0  0  0  0  0  0  0  0
   10.5923   11.8694   24.0858 C   0  0  0  0  0  0  0  0  0  0  0  0
   10.0745   10.5810   23.9783 C   0  0  0  0  0  0  0  0  0  0  0  0
    8.8031   10.3474   24.4988 C   0  0  0  0  0  0  0  0  0  0  0  0
   10.9175    9.4538   23.4794 C   0  0  0  0  0  0  0  0  0  0  0  0
   11.3290    9.5855   22.0391 C   0  0  0  0  0  0  0  0  0  0  0  0
   12.2429   10.7085   21.5967 C   0  0  0  0  0  0  0  0  0  0  0  0
   12.0424   12.1126   22.0868 C   0  0  0  0  0  0  0  0  0  0  0  0
   11.8712   12.2605   23.5371 C   0  0  0  0  0  0  0  0  0  0  0  0
   12.6753   12.8480   24.2447 O   0  0  0  0  0  0  0  0  0  0  0  0
  1  2  3  0
  2  3  1  0
  3  4  1  0
  4  5  1  0
  5  6  1  0
  6  7  2  0
  7  8  1  0
  8  9  2  0
  9 10  1  0
 10 11  2  0
 10 12  1  0
 12 13  1  0
 13 14  1  0
 14 15  1  0
 15 16  1  0
 16 17  2  0
 11  6  1  0
 16  9  1  0
M  END
>  <distance_score>  (218) 
1.784323

>  <ref_pdb>  (218) 
A1775a

>  <ref_mols>  (218) 
A1775a

>  <alias>  (218) 
None

>  <original SMILES>  (218) 
N#CCCOc1ccc2c(c1)CCCCC2=O

>  <inchikey>  (218) 
UIJWFKGEOHDYTR-UHFFFAOYSA-N

>  <exports>  (218) 
['/opt/xchem-fragalysis-2/maxwin/2A_HIPPO/hippo/A71EV2A_10_recipes/Recipe_1LPVPY0_poses.sdf']

>  <original ID>  (218) 
UIJWFKGEOHDYTR-UHFFFAOYSA-N

>  <energy_score>  (218) 
-22.399686

>  <tags>  (218) 
[]

>  <HIPPO ID>  (218) 
125500

>  <name>  (218) 
UIJWFKGEOHDYTR-UHFFFAOYSA-N

$$$$
IQRWIBUQPRPKGQ-UHFFFAOYSA-N
     RDKit          3D

 17 18  0  0  0  0  0  0  0  0999 V2000
    4.6523    9.7005   27.0645 C   0  0  0  0  0  0  0  0  0  0  0  0
    4.8619   10.8751   26.9458 C   0  0  0  0  0  0  0  0  0  0  0  0
    5.1274   12.3003   26.7457 C   0  0  0  0  0  0  0  0  0  0  0  0
    6.1795   12.4735   25.6664 C   0  0  0  0  0  0  0  0  0  0  0  0
    7.4636   12.1713   26.2259 O   0  0  0  0  0  0  0  0  0  0  0  0
    8.3003   11.7151   25.2583 C   0  0  0  0  0  0  0  0  0  0  0  0
    8.2771   10.3832   24.9043 C   0  0  0  0  0  0  0  0  0  0  0  0
    9.1724    9.9118   23.9647 C   0  0  0  0  0  0  0  0  0  0  0  0
   10.0262   10.7975   23.2932 C   0  0  0  0  0  0  0  0  0  0  0  0
    9.9964   12.1620   23.6054 C   0  0  0  0  0  0  0  0  0  0  0  0
    9.1798   12.5926   24.6554 C   0  0  0  0  0  0  0  0  0  0  0  0
   10.7022   13.2307   22.8326 C   0  0  0  0  0  0  0  0  0  0  0  0
   12.1881   13.0045   22.8298 C   0  0  0  0  0  0  0  0  0  0  0  0
   12.5973   12.0868   21.6931 C   0  0  0  0  0  0  0  0  0  0  0  0
   12.1239   10.6491   21.7396 C   0  0  0  0  0  0  0  0  0  0  0  0
   10.8119   10.1640   22.2240 C   0  0  0  0  0  0  0  0  0  0  0  0
   10.4306    9.0716   21.7976 O   0  0  0  0  0  0  0  0  0  0  0  0
  1  2  3  0
  2  3  1  0
  3  4  1  0
  4  5  1  0
  5  6  1  0
  6  7  2  0
  7  8  1  0
  8  9  2  0
  9 10  1  0
 10 11  2  0
 10 12  1  0
 12 13  1  0
 13 14  1  0
 14 15  1  0
 15 16  1  0
 16 17  2  0
 11  6  1  0
 16  9  1  0
M  END
>  <distance_score>  (219) 
1.145701

>  <ref_pdb>  (219) 
A1775a

>  <ref_mols>  (219) 
A1775a

>  <alias>  (219) 
None

>  <original SMILES>  (219) 
C#CCCOc1ccc2c(c1)CCCCC2=O

>  <inchikey>  (219) 
IQRWIBUQPRPKGQ-UHFFFAOYSA-N

>  <exports>  (219) 
['/opt/xchem-fragalysis-2/maxwin/2A_HIPPO/hippo/A71EV2A_10_recipes/Recipe_1LPVPY0_poses.sdf']

>  <original ID>  (219) 
IQRWIBUQPRPKGQ-UHFFFAOYSA-N

>  <energy_score>  (219) 
-23.081723

>  <tags>  (219) 
[]

>  <HIPPO ID>  (219) 
125902

>  <name>  (219) 
IQRWIBUQPRPKGQ-UHFFFAOYSA-N

$$$$
ZYLJLWLQPBRDLN-UHFFFAOYSA-N
     RDKit          3D

 13 13  0  0  0  0  0  0  0  0999 V2000
    5.5685   11.9785   26.9226 C   0  0  0  0  0  0  0  0  0  0  0  0
    6.8210   12.2695   26.1217 C   0  0  0  0  0  0  0  0  0  0  0  0
    7.3820   11.0315   25.7068 O   0  0  0  0  0  0  0  0  0  0  0  0
    8.4803   11.0910   24.8998 C   0  0  0  0  0  0  0  0  0  0  0  0
    9.2485   12.2195   24.6288 C   0  0  0  0  0  0  0  0  0  0  0  0
   10.3247   12.1380   23.7399 C   0  0  0  0  0  0  0  0  0  0  0  0
   10.6432   10.9182   23.1347 C   0  0  0  0  0  0  0  0  0  0  0  0
   11.7040   10.7816   22.1095 C   0  0  0  0  0  0  0  0  0  0  0  0
   11.8744    9.6690   21.6111 O   0  0  0  0  0  0  0  0  0  0  0  0
   12.4762   12.0254   21.7073 C   0  0  0  0  0  0  0  0  0  0  0  0
   13.7049   11.6008   20.4883 Cl  0  0  0  0  0  0  0  0  0  0  0  0
    9.9051    9.7782   23.4500 C   0  0  0  0  0  0  0  0  0  0  0  0
    8.8287    9.8754   24.3189 C   0  0  0  0  0  0  0  0  0  0  0  0
  1  2  1  0
  2  3  1  0
  3  4  1  0
  4  5  2  0
  5  6  1  0
  6  7  2  0
  7  8  1  0
  8  9  2  0
  8 10  1  0
 10 11  1  0
  7 12  1  0
 12 13  2  0
 13  4  1  0
M  END
>  <distance_score>  (220) 
0.397567

>  <ref_pdb>  (220) 
A1775a

>  <ref_mols>  (220) 
A1775a

>  <alias>  (220) 
None

>  <original SMILES>  (220) 
CCOc1ccc(C(=O)CCl)cc1

>  <inchikey>  (220) 
ZYLJLWLQPBRDLN-UHFFFAOYSA-N

>  <exports>  (220) 
['/opt/xchem-fragalysis-2/maxwin/2A_HIPPO/hippo/A71EV2A_10_recipes/Recipe_1LPUPHX_poses.sdf', '/opt/xchem-fragalysis-2/maxwin/2A_HIPPO/hippo/A71EV2A_10_recipes/Recipe_1LPVPY0_poses.sdf']

>  <original ID>  (220) 
ZYLJLWLQPBRDLN-UHFFFAOYSA-N

>  <energy_score>  (220) 
-10.519338

>  <tags>  (220) 
['Syndirella scaffold']

>  <HIPPO ID>  (220) 
127321

>  <name>  (220) 
ZYLJLWLQPBRDLN-UHFFFAOYSA-N

$$$$
OBUGAMBYISEWLC-UHFFFAOYSA-N
     RDKit          3D

 14 14  0  0  0  0  0  0  0  0999 V2000
    5.5732   12.0375   26.9352 C   0  0  0  0  0  0  0  0  0  0  0  0
    6.8486   12.2964   26.1594 C   0  0  0  0  0  0  0  0  0  0  0  0
    7.3792   11.0437   25.7481 O   0  0  0  0  0  0  0  0  0  0  0  0
    8.4705   11.0769   24.9310 C   0  0  0  0  0  0  0  0  0  0  0  0
    9.2977   12.1659   24.6909 C   0  0  0  0  0  0  0  0  0  0  0  0
   10.3685   12.0440   23.7970 C   0  0  0  0  0  0  0  0  0  0  0  0
   10.6168   10.8335   23.1280 C   0  0  0  0  0  0  0  0  0  0  0  0
   11.6929   10.7336   22.1009 C   0  0  0  0  0  0  0  0  0  0  0  0
   11.9057    9.6526   21.5561 O   0  0  0  0  0  0  0  0  0  0  0  0
   12.4506   12.0007   21.7276 C   0  0  0  0  0  0  0  0  0  0  0  0
   13.6864   11.6167   20.4964 Cl  0  0  0  0  0  0  0  0  0  0  0  0
    9.7826    9.7443   23.3938 C   0  0  0  0  0  0  0  0  0  0  0  0
    9.9050    8.5412   22.7630 O   0  0  0  0  0  0  0  0  0  0  0  0
    8.7425    9.8678   24.3028 C   0  0  0  0  0  0  0  0  0  0  0  0
  1  2  1  0
  2  3  1  0
  3  4  1  0
  4  5  2  0
  5  6  1  0
  6  7  2  0
  7  8  1  0
  8  9  2  0
  8 10  1  0
 10 11  1  0
  7 12  1  0
 12 13  1  0
 12 14  2  0
 14  4  1  0
M  END
>  <distance_score>  (221) 
0.383122

>  <ref_pdb>  (221) 
A1775a

>  <ref_mols>  (221) 
A1775a

>  <alias>  (221) 
None

>  <original SMILES>  (221) 
CCOc1ccc(C(=O)CCl)c(O)c1

>  <inchikey>  (221) 
OBUGAMBYISEWLC-UHFFFAOYSA-N

>  <exports>  (221) 
['/opt/xchem-fragalysis-2/maxwin/2A_HIPPO/hippo/A71EV2A_10_recipes/Recipe_1LPUPHX_poses.sdf', '/opt/xchem-fragalysis-2/maxwin/2A_HIPPO/hippo/A71EV2A_10_recipes/Recipe_1LPVPY0_poses.sdf']

>  <original ID>  (221) 
OBUGAMBYISEWLC-UHFFFAOYSA-N

>  <energy_score>  (221) 
-22.955469

>  <tags>  (221) 
[]

>  <HIPPO ID>  (221) 
127324

>  <name>  (221) 
OBUGAMBYISEWLC-UHFFFAOYSA-N

$$$$
WWJWIBDPQFFRRS-UHFFFAOYSA-N
     RDKit          3D

 14 14  0  0  0  0  0  0  0  0999 V2000
   11.0460    7.8744   23.2813 C   0  0  0  0  0  0  0  0  0  0  0  0
   10.0228    8.7453   23.8776 C   0  0  0  0  0  0  0  0  0  0  0  0
    9.4576    9.5857   22.9002 O   0  0  0  0  0  0  0  0  0  0  0  0
    9.5072   10.8285   23.4623 C   0  0  0  0  0  0  0  0  0  0  0  0
    8.5475   11.0999   24.4337 C   0  0  0  0  0  0  0  0  0  0  0  0
    8.6569   12.2495   25.1699 C   0  0  0  0  0  0  0  0  0  0  0  0
    7.7571   12.4021   26.1746 O   0  0  0  0  0  0  0  0  0  0  0  0
    9.6740   13.1607   24.9063 C   0  0  0  0  0  0  0  0  0  0  0  0
   10.6193   12.8927   23.9036 C   0  0  0  0  0  0  0  0  0  0  0  0
   10.5599   11.6993   23.1795 C   0  0  0  0  0  0  0  0  0  0  0  0
   11.6054   11.2988   22.1891 C   0  0  0  0  0  0  0  0  0  0  0  0
   11.6865   10.1497   21.7732 O   0  0  0  0  0  0  0  0  0  0  0  0
   12.5320   12.3514   21.6874 C   0  0  0  0  0  0  0  0  0  0  0  0
   13.6802   11.6435   20.5025 Cl  0  0  0  0  0  0  0  0  0  0  0  0
  1  2  1  0
  2  3  1  0
  3  4  1  0
  4  5  2  0
  5  6  1  0
  6  7  1  0
  6  8  2  0
  8  9  1  0
  9 10  2  0
 10 11  1  0
 11 12  2  0
 11 13  1  0
 13 14  1  0
 10  4  1  0
M  END
>  <distance_score>  (222) 
1.206611

>  <ref_pdb>  (222) 
A1775a

>  <ref_mols>  (222) 
A1775a

>  <alias>  (222) 
None

>  <original SMILES>  (222) 
CCOc1cc(O)ccc1C(=O)CCl

>  <inchikey>  (222) 
WWJWIBDPQFFRRS-UHFFFAOYSA-N

>  <exports>  (222) 
['/opt/xchem-fragalysis-2/maxwin/2A_HIPPO/hippo/A71EV2A_10_recipes/Recipe_1LPUPHX_poses.sdf', '/opt/xchem-fragalysis-2/maxwin/2A_HIPPO/hippo/A71EV2A_10_recipes/Recipe_1LPVPY0_poses.sdf']

>  <original ID>  (222) 
WWJWIBDPQFFRRS-UHFFFAOYSA-N

>  <energy_score>  (222) 
-15.848289

>  <tags>  (222) 
[]

>  <HIPPO ID>  (222) 
127325

>  <name>  (222) 
WWJWIBDPQFFRRS-UHFFFAOYSA-N

$$$$
XWXCTPDDNOVDMC-UHFFFAOYSA-N
     RDKit          3D

 14 14  0  0  0  0  0  0  0  0999 V2000
    5.6543   12.0356   26.8956 C   0  0  0  0  0  0  0  0  0  0  0  0
    6.9065   12.3596   26.1054 C   0  0  0  0  0  0  0  0  0  0  0  0
    7.5046   11.1374   25.7032 O   0  0  0  0  0  0  0  0  0  0  0  0
    8.5937   11.2245   24.8819 C   0  0  0  0  0  0  0  0  0  0  0  0
    9.3698   12.3429   24.6148 C   0  0  0  0  0  0  0  0  0  0  0  0
   10.4349   12.2424   23.7083 C   0  0  0  0  0  0  0  0  0  0  0  0
   10.7299   11.0164   23.0911 C   0  0  0  0  0  0  0  0  0  0  0  0
   11.7739   10.8445   22.0591 C   0  0  0  0  0  0  0  0  0  0  0  0
   11.9254    9.7241   21.5723 O   0  0  0  0  0  0  0  0  0  0  0  0
   12.5565   12.0661   21.6388 C   0  0  0  0  0  0  0  0  0  0  0  0
   13.7793   11.6073   20.4323 Cl  0  0  0  0  0  0  0  0  0  0  0  0
    9.9836    9.8900   23.3989 C   0  0  0  0  0  0  0  0  0  0  0  0
    8.9301   10.0216   24.2698 C   0  0  0  0  0  0  0  0  0  0  0  0
    8.1767    8.9203   24.4867 O   0  0  0  0  0  0  0  0  0  0  0  0
  1  2  1  0
  2  3  1  0
  3  4  1  0
  4  5  2  0
  5  6  1  0
  6  7  2  0
  7  8  1  0
  8  9  2  0
  8 10  1  0
 10 11  1  0
  7 12  1  0
 12 13  2  0
 13 14  1  0
 13  4  1  0
M  END
>  <distance_score>  (223) 
0.420084

>  <ref_pdb>  (223) 
A1775a

>  <ref_mols>  (223) 
A1775a

>  <alias>  (223) 
None

>  <original SMILES>  (223) 
CCOc1ccc(C(=O)CCl)cc1O

>  <inchikey>  (223) 
XWXCTPDDNOVDMC-UHFFFAOYSA-N

>  <exports>  (223) 
['/opt/xchem-fragalysis-2/maxwin/2A_HIPPO/hippo/A71EV2A_10_recipes/Recipe_1LPVPY0_poses.sdf']

>  <original ID>  (223) 
XWXCTPDDNOVDMC-UHFFFAOYSA-N

>  <energy_score>  (223) 
-16.566187

>  <tags>  (223) 
[]

>  <HIPPO ID>  (223) 
127326

>  <name>  (223) 
XWXCTPDDNOVDMC-UHFFFAOYSA-N

$$$$
OKDCUVWOFWACSU-UHFFFAOYSA-N
     RDKit          3D

 14 14  0  0  0  0  0  0  0  0999 V2000
    5.6703    9.6558   26.4203 C   0  0  0  0  0  0  0  0  0  0  0  0
    6.7476   10.5351   25.8304 C   0  0  0  0  0  0  0  0  0  0  0  0
    7.8076    9.9487   25.0732 O   0  0  0  0  0  0  0  0  0  0  0  0
    8.7572   10.8680   24.6579 C   0  0  0  0  0  0  0  0  0  0  0  0
    9.7019   10.4154   23.7243 C   0  0  0  0  0  0  0  0  0  0  0  0
   10.6794   11.3006   23.2281 C   0  0  0  0  0  0  0  0  0  0  0  0
   11.6522   10.8836   22.1750 C   0  0  0  0  0  0  0  0  0  0  0  0
   11.6631    9.7145   21.7996 O   0  0  0  0  0  0  0  0  0  0  0  0
   12.5458   11.9972   21.6269 C   0  0  0  0  0  0  0  0  0  0  0  0
   13.7339   11.4475   20.4528 Cl  0  0  0  0  0  0  0  0  0  0  0  0
   10.7273   12.6204   23.6952 C   0  0  0  0  0  0  0  0  0  0  0  0
    9.8255   13.0669   24.6325 C   0  0  0  0  0  0  0  0  0  0  0  0
    8.8547   12.1997   25.1035 C   0  0  0  0  0  0  0  0  0  0  0  0
    8.0118   12.7405   26.0298 O   0  0  0  0  0  0  0  0  0  0  0  0
  1  2  1  0
  2  3  1  0
  3  4  1  0
  4  5  2  0
  5  6  1  0
  6  7  1  0
  7  8  2  0
  7  9  1  0
  9 10  1  0
  6 11  2  0
 11 12  1  0
 12 13  2  0
 13 14  1  0
 13  4  1  0
M  END
>  <distance_score>  (224) 
1.135866

>  <ref_pdb>  (224) 
A1775a

>  <ref_mols>  (224) 
A1775a

>  <alias>  (224) 
None

>  <original SMILES>  (224) 
CCOc1cc(C(=O)CCl)ccc1O

>  <inchikey>  (224) 
OKDCUVWOFWACSU-UHFFFAOYSA-N

>  <exports>  (224) 
['/opt/xchem-fragalysis-2/maxwin/2A_HIPPO/hippo/A71EV2A_10_recipes/Recipe_1LPVPY0_poses.sdf']

>  <original ID>  (224) 
OKDCUVWOFWACSU-UHFFFAOYSA-N

>  <energy_score>  (224) 
-0.927904

>  <tags>  (224) 
[]

>  <HIPPO ID>  (224) 
127327

>  <name>  (224) 
OKDCUVWOFWACSU-UHFFFAOYSA-N

$$$$
WPDWLXRMNQALMF-UHFFFAOYSA-N
     RDKit          3D

 14 14  0  0  0  0  0  0  0  0999 V2000
    5.4947   11.9930   28.1093 O   0  0  0  0  0  0  0  0  0  0  0  0
    5.6067   11.8188   26.9001 C   0  0  0  0  0  0  0  0  0  0  0  0
    6.8287   12.2077   26.1199 C   0  0  0  0  0  0  0  0  0  0  0  0
    7.3493   10.9917   25.6149 O   0  0  0  0  0  0  0  0  0  0  0  0
    8.4726   11.0637   24.8487 C   0  0  0  0  0  0  0  0  0  0  0  0
    9.2323   12.2001   24.5899 C   0  0  0  0  0  0  0  0  0  0  0  0
   10.3223   12.1269   23.7171 C   0  0  0  0  0  0  0  0  0  0  0  0
   10.6600   10.9088   23.1183 C   0  0  0  0  0  0  0  0  0  0  0  0
   11.7224   10.7801   22.0953 C   0  0  0  0  0  0  0  0  0  0  0  0
   11.8951    9.6696   21.5930 O   0  0  0  0  0  0  0  0  0  0  0  0
   12.4902   12.0265   21.6963 C   0  0  0  0  0  0  0  0  0  0  0  0
   13.7199   11.6045   20.4780 Cl  0  0  0  0  0  0  0  0  0  0  0  0
    9.9344    9.7605   23.4305 C   0  0  0  0  0  0  0  0  0  0  0  0
    8.8455    9.8486   24.2819 C   0  0  0  0  0  0  0  0  0  0  0  0
  1  2  2  0
  2  3  1  0
  3  4  1  0
  4  5  1  0
  5  6  2  0
  6  7  1  0
  7  8  2  0
  8  9  1  0
  9 10  2  0
  9 11  1  0
 11 12  1  0
  8 13  1  0
 13 14  2  0
 14  5  1  0
M  END
>  <distance_score>  (225) 
0.390978

>  <ref_pdb>  (225) 
A1775a

>  <ref_mols>  (225) 
A1775a

>  <alias>  (225) 
None

>  <original SMILES>  (225) 
O=CCOc1ccc(C(=O)CCl)cc1

>  <inchikey>  (225) 
WPDWLXRMNQALMF-UHFFFAOYSA-N

>  <exports>  (225) 
['/opt/xchem-fragalysis-2/maxwin/2A_HIPPO/hippo/A71EV2A_10_recipes/Recipe_1LPVPY0_poses.sdf']

>  <original ID>  (225) 
WPDWLXRMNQALMF-UHFFFAOYSA-N

>  <energy_score>  (225) 
-15.483995

>  <tags>  (225) 
[]

>  <HIPPO ID>  (225) 
127328

>  <name>  (225) 
WPDWLXRMNQALMF-UHFFFAOYSA-N

$$$$
BSVAMGMIOLVIJD-UHFFFAOYSA-N
     RDKit          3D

 14 14  0  0  0  0  0  0  0  0999 V2000
   11.7954    9.6989   21.6669 O   0  0  0  0  0  0  0  0  0  0  0  0
   11.6714   10.8306   22.1336 C   0  0  0  0  0  0  0  0  0  0  0  0
   12.4849   12.0376   21.6959 C   0  0  0  0  0  0  0  0  0  0  0  0
   13.7004   11.5703   20.4864 Cl  0  0  0  0  0  0  0  0  0  0  0  0
   10.6304   11.0478   23.1699 C   0  0  0  0  0  0  0  0  0  0  0  0
    9.8094    9.9698   23.5174 C   0  0  0  0  0  0  0  0  0  0  0  0
    8.8011   10.1435   24.4584 C   0  0  0  0  0  0  0  0  0  0  0  0
    8.6238   11.3815   25.0636 C   0  0  0  0  0  0  0  0  0  0  0  0
    7.7243   11.5000   26.0806 O   0  0  0  0  0  0  0  0  0  0  0  0
    6.4963   12.0754   25.6363 C   0  0  0  0  0  0  0  0  0  0  0  0
    5.4967   12.0613   26.7804 C   0  0  0  0  0  0  0  0  0  0  0  0
    5.0709   10.3891   27.2218 Cl  0  0  0  0  0  0  0  0  0  0  0  0
    9.4474   12.4532   24.7456 C   0  0  0  0  0  0  0  0  0  0  0  0
   10.4431   12.2924   23.7858 C   0  0  0  0  0  0  0  0  0  0  0  0
  1  2  2  0
  2  3  1  0
  3  4  1  0
  2  5  1  0
  5  6  2  0
  6  7  1  0
  7  8  2  0
  8  9  1  0
  9 10  1  0
 10 11  1  0
 11 12  1  0
  8 13  1  0
 13 14  2  0
 14  5  1  0
M  END
>  <distance_score>  (226) 
0.550545

>  <ref_pdb>  (226) 
A1775a

>  <ref_mols>  (226) 
A1775a

>  <alias>  (226) 
None

>  <original SMILES>  (226) 
O=C(CCl)c1ccc(OCCCl)cc1

>  <inchikey>  (226) 
BSVAMGMIOLVIJD-UHFFFAOYSA-N

>  <exports>  (226) 
['/opt/xchem-fragalysis-2/maxwin/2A_HIPPO/hippo/A71EV2A_10_recipes/Recipe_1LPVPY0_poses.sdf']

>  <original ID>  (226) 
BSVAMGMIOLVIJD-UHFFFAOYSA-N

>  <energy_score>  (226) 
-5.041776

>  <tags>  (226) 
[]

>  <HIPPO ID>  (226) 
127329

>  <name>  (226) 
BSVAMGMIOLVIJD-UHFFFAOYSA-N

$$$$
PARRSGRSMOSSPV-UHFFFAOYSA-N
     RDKit          3D

 14 14  0  0  0  0  0  0  0  0999 V2000
   11.8719    9.6683   21.6119 O   0  0  0  0  0  0  0  0  0  0  0  0
   11.7031   10.7807   22.1111 C   0  0  0  0  0  0  0  0  0  0  0  0
   12.4756   12.0245   21.7085 C   0  0  0  0  0  0  0  0  0  0  0  0
   13.7038   11.6001   20.4890 Cl  0  0  0  0  0  0  0  0  0  0  0  0
   10.6425   10.9178   23.1366 C   0  0  0  0  0  0  0  0  0  0  0  0
   10.3241   12.1383   23.7401 C   0  0  0  0  0  0  0  0  0  0  0  0
    9.2466   12.2215   24.6271 C   0  0  0  0  0  0  0  0  0  0  0  0
    8.4762   11.0942   24.8970 C   0  0  0  0  0  0  0  0  0  0  0  0
    7.3747   11.0400   25.7007 O   0  0  0  0  0  0  0  0  0  0  0  0
    6.7615   12.2838   26.0309 C   0  0  0  0  0  0  0  0  0  0  0  0
    5.4733   12.0217   26.7883 C   0  0  0  0  0  0  0  0  0  0  0  0
    5.8634   11.5465   28.6416 Br  0  0  0  0  0  0  0  0  0  0  0  0
    8.8270    9.8767   24.3218 C   0  0  0  0  0  0  0  0  0  0  0  0
    9.9045    9.7782   23.4542 C   0  0  0  0  0  0  0  0  0  0  0  0
  1  2  2  0
  2  3  1  0
  3  4  1  0
  2  5  1  0
  5  6  2  0
  6  7  1  0
  7  8  2  0
  8  9  1  0
  9 10  1  0
 10 11  1  0
 11 12  1  0
  8 13  1  0
 13 14  2  0
 14  5  1  0
M  END
>  <distance_score>  (227) 
0.395019

>  <ref_pdb>  (227) 
A1775a

>  <ref_mols>  (227) 
A1775a

>  <alias>  (227) 
None

>  <original SMILES>  (227) 
O=C(CCl)c1ccc(OCCBr)cc1

>  <inchikey>  (227) 
PARRSGRSMOSSPV-UHFFFAOYSA-N

>  <exports>  (227) 
['/opt/xchem-fragalysis-2/maxwin/2A_HIPPO/hippo/A71EV2A_10_recipes/Recipe_1LPVPY0_poses.sdf']

>  <original ID>  (227) 
PARRSGRSMOSSPV-UHFFFAOYSA-N

>  <energy_score>  (227) 
-7.520686

>  <tags>  (227) 
[]

>  <HIPPO ID>  (227) 
127334

>  <name>  (227) 
PARRSGRSMOSSPV-UHFFFAOYSA-N

$$$$
BXQVDIAKTINJPF-UHFFFAOYSA-N
     RDKit          3D

 14 14  0  0  0  0  0  0  0  0999 V2000
    4.4637   11.7919   27.2813 N   0  0  0  0  0  0  0  0  0  0  0  0
    5.4534   11.9795   26.7047 C   0  0  0  0  0  0  0  0  0  0  0  0
    6.7097   12.2426   25.9914 C   0  0  0  0  0  0  0  0  0  0  0  0
    7.3618   11.0131   25.6844 O   0  0  0  0  0  0  0  0  0  0  0  0
    8.4659   11.0801   24.8870 C   0  0  0  0  0  0  0  0  0  0  0  0
    9.2302   12.2127   24.6227 C   0  0  0  0  0  0  0  0  0  0  0  0
   10.3121   12.1354   23.7389 C   0  0  0  0  0  0  0  0  0  0  0  0
   10.6403   10.9170   23.1352 C   0  0  0  0  0  0  0  0  0  0  0  0
   11.7033   10.7831   22.1115 C   0  0  0  0  0  0  0  0  0  0  0  0
   11.8746    9.6708   21.6130 O   0  0  0  0  0  0  0  0  0  0  0  0
   12.4746   12.0273   21.7098 C   0  0  0  0  0  0  0  0  0  0  0  0
   13.7027   11.6026   20.4903 Cl  0  0  0  0  0  0  0  0  0  0  0  0
    9.9087    9.7731   23.4506 C   0  0  0  0  0  0  0  0  0  0  0  0
    8.8278    9.8648   24.3137 C   0  0  0  0  0  0  0  0  0  0  0  0
  1  2  3  0
  2  3  1  0
  3  4  1  0
  4  5  1  0
  5  6  2  0
  6  7  1  0
  7  8  2  0
  8  9  1  0
  9 10  2  0
  9 11  1  0
 11 12  1  0
  8 13  1  0
 13 14  2  0
 14  5  1  0
M  END
>  <distance_score>  (228) 
0.396624

>  <ref_pdb>  (228) 
A1775a

>  <ref_mols>  (228) 
A1775a

>  <alias>  (228) 
None

>  <original SMILES>  (228) 
N#CCOc1ccc(C(=O)CCl)cc1

>  <inchikey>  (228) 
BXQVDIAKTINJPF-UHFFFAOYSA-N

>  <exports>  (228) 
['/opt/xchem-fragalysis-2/maxwin/2A_HIPPO/hippo/A71EV2A_10_recipes/Recipe_1LPVPY0_poses.sdf']

>  <original ID>  (228) 
BXQVDIAKTINJPF-UHFFFAOYSA-N

>  <energy_score>  (228) 
-60.072238

>  <tags>  (228) 
[]

>  <HIPPO ID>  (228) 
127340

>  <name>  (228) 
BXQVDIAKTINJPF-UHFFFAOYSA-N

$$$$
ARVBKOZXQOCVGU-UHFFFAOYSA-N
     RDKit          3D

 14 14  0  0  0  0  0  0  0  0999 V2000
   11.8845    9.6687   21.6013 O   0  0  0  0  0  0  0  0  0  0  0  0
   11.7135   10.7803   22.1014 C   0  0  0  0  0  0  0  0  0  0  0  0
   12.4841   12.0250   21.7008 C   0  0  0  0  0  0  0  0  0  0  0  0
   13.7135   11.6019   20.4824 Cl  0  0  0  0  0  0  0  0  0  0  0  0
   10.6515   10.9144   23.1250 C   0  0  0  0  0  0  0  0  0  0  0  0
    9.9205    9.7708   23.4426 C   0  0  0  0  0  0  0  0  0  0  0  0
    8.8383    9.8657   24.3034 C   0  0  0  0  0  0  0  0  0  0  0  0
    8.4765   11.0831   24.8722 C   0  0  0  0  0  0  0  0  0  0  0  0
    7.3676   11.0207   25.6620 O   0  0  0  0  0  0  0  0  0  0  0  0
    6.7820   12.2573   26.0594 C   0  0  0  0  0  0  0  0  0  0  0  0
    5.5297   11.9603   26.8623 C   0  0  0  0  0  0  0  0  0  0  0  0
    5.9011   11.5122   28.0946 F   0  0  0  0  0  0  0  0  0  0  0  0
    9.2401   12.2148   24.6036 C   0  0  0  0  0  0  0  0  0  0  0  0
   10.3230   12.1352   23.7232 C   0  0  0  0  0  0  0  0  0  0  0  0
  1  2  2  0
  2  3  1  0
  3  4  1  0
  2  5  1  0
  5  6  2  0
  6  7  1  0
  7  8  2  0
  8  9  1  0
  9 10  1  0
 10 11  1  0
 11 12  1  0
  8 13  1  0
 13 14  2  0
 14  5  1  0
M  END
>  <distance_score>  (229) 
0.391372

>  <ref_pdb>  (229) 
A1775a

>  <ref_mols>  (229) 
A1775a

>  <alias>  (229) 
None

>  <original SMILES>  (229) 
O=C(CCl)c1ccc(OCCF)cc1

>  <inchikey>  (229) 
ARVBKOZXQOCVGU-UHFFFAOYSA-N

>  <exports>  (229) 
['/opt/xchem-fragalysis-2/maxwin/2A_HIPPO/hippo/A71EV2A_10_recipes/Recipe_1LPVPY0_poses.sdf']

>  <original ID>  (229) 
ARVBKOZXQOCVGU-UHFFFAOYSA-N

>  <energy_score>  (229) 
-6.335161

>  <tags>  (229) 
[]

>  <HIPPO ID>  (229) 
127342

>  <name>  (229) 
ARVBKOZXQOCVGU-UHFFFAOYSA-N

$$$$
YMVLCHCOIKRSQL-UHFFFAOYSA-N
     RDKit          3D

 15 15  0  0  0  0  0  0  0  0999 V2000
   11.8952    9.6506   21.5684 O   0  0  0  0  0  0  0  0  0  0  0  0
   11.6847   10.7329   22.1116 C   0  0  0  0  0  0  0  0  0  0  0  0
   12.4430   11.9994   21.7350 C   0  0  0  0  0  0  0  0  0  0  0  0
   13.6771   11.6145   20.5024 Cl  0  0  0  0  0  0  0  0  0  0  0  0
   10.6102   10.8360   23.1412 C   0  0  0  0  0  0  0  0  0  0  0  0
   10.3719   12.0457   23.8142 C   0  0  0  0  0  0  0  0  0  0  0  0
    9.3000   12.1750   24.7062 C   0  0  0  0  0  0  0  0  0  0  0  0
    8.4589   11.0947   24.9415 C   0  0  0  0  0  0  0  0  0  0  0  0
    7.3535   11.0752   25.7435 O   0  0  0  0  0  0  0  0  0  0  0  0
    6.9339   12.3251   26.2864 C   0  0  0  0  0  0  0  0  0  0  0  0
    5.6327   12.1466   27.0489 C   0  0  0  0  0  0  0  0  0  0  0  0
    4.5955   12.3955   26.2057 F   0  0  0  0  0  0  0  0  0  0  0  0
    8.7238    9.8845   24.3113 C   0  0  0  0  0  0  0  0  0  0  0  0
    9.7666    9.7535   23.4045 C   0  0  0  0  0  0  0  0  0  0  0  0
    9.8823    8.5506   22.7713 O   0  0  0  0  0  0  0  0  0  0  0  0
  1  2  2  0
  2  3  1  0
  3  4  1  0
  2  5  1  0
  5  6  2  0
  6  7  1  0
  7  8  2  0
  8  9  1  0
  9 10  1  0
 10 11  1  0
 11 12  1  0
  8 13  1  0
 13 14  2  0
 14 15  1  0
 14  5  1  0
M  END
>  <distance_score>  (230) 
0.401519

>  <ref_pdb>  (230) 
A1775a

>  <ref_mols>  (230) 
A1775a

>  <alias>  (230) 
None

>  <original SMILES>  (230) 
O=C(CCl)c1ccc(OCCF)cc1O

>  <inchikey>  (230) 
YMVLCHCOIKRSQL-UHFFFAOYSA-N

>  <exports>  (230) 
['/opt/xchem-fragalysis-2/maxwin/2A_HIPPO/hippo/A71EV2A_10_recipes/Recipe_1LPVPY0_poses.sdf']

>  <original ID>  (230) 
YMVLCHCOIKRSQL-UHFFFAOYSA-N

>  <energy_score>  (230) 
-2.551358

>  <tags>  (230) 
[]

>  <HIPPO ID>  (230) 
127368

>  <name>  (230) 
YMVLCHCOIKRSQL-UHFFFAOYSA-N

$$$$
VJPCBDRBEFXASS-UHFFFAOYSA-N
     RDKit          3D

 15 15  0  0  0  0  0  0  0  0999 V2000
   11.9038    9.9418   21.9813 O   0  0  0  0  0  0  0  0  0  0  0  0
   11.7146   11.1357   22.1912 C   0  0  0  0  0  0  0  0  0  0  0  0
   12.6007   12.2020   21.6149 C   0  0  0  0  0  0  0  0  0  0  0  0
   13.7822   11.5388   20.4690 Cl  0  0  0  0  0  0  0  0  0  0  0  0
   10.6048   11.6168   23.0703 C   0  0  0  0  0  0  0  0  0  0  0  0
   10.1147   12.9177   22.9654 C   0  0  0  0  0  0  0  0  0  0  0  0
    9.0036   13.3174   23.7066 C   0  0  0  0  0  0  0  0  0  0  0  0
    8.3963   12.4431   24.5954 C   0  0  0  0  0  0  0  0  0  0  0  0
    7.2995   12.8445   25.2856 O   0  0  0  0  0  0  0  0  0  0  0  0
    8.8911   11.1758   24.7551 C   0  0  0  0  0  0  0  0  0  0  0  0
    9.9671   10.7666   23.9660 C   0  0  0  0  0  0  0  0  0  0  0  0
   10.3633    9.4807   24.0970 O   0  0  0  0  0  0  0  0  0  0  0  0
    9.3533    8.6517   23.5477 C   0  0  0  0  0  0  0  0  0  0  0  0
    9.9052    7.9928   22.3514 C   0  0  0  0  0  0  0  0  0  0  0  0
    9.9004    8.7852   21.2747 F   0  0  0  0  0  0  0  0  0  0  0  0
  1  2  2  0
  2  3  1  0
  3  4  1  0
  2  5  1  0
  5  6  2  0
  6  7  1  0
  7  8  2  0
  8  9  1  0
  8 10  1  0
 10 11  2  0
 11 12  1  0
 12 13  1  0
 13 14  1  0
 14 15  1  0
 11  5  1  0
M  END
>  <distance_score>  (231) 
1.289756

>  <ref_pdb>  (231) 
A1775a

>  <ref_mols>  (231) 
A1775a

>  <alias>  (231) 
None

>  <original SMILES>  (231) 
O=C(CCl)c1ccc(O)cc1OCCF

>  <inchikey>  (231) 
VJPCBDRBEFXASS-UHFFFAOYSA-N

>  <exports>  (231) 
['/opt/xchem-fragalysis-2/maxwin/2A_HIPPO/hippo/A71EV2A_10_recipes/Recipe_1LPVPY0_poses.sdf']

>  <original ID>  (231) 
VJPCBDRBEFXASS-UHFFFAOYSA-N

>  <energy_score>  (231) 
-8.141697

>  <tags>  (231) 
[]

>  <HIPPO ID>  (231) 
127369

>  <name>  (231) 
VJPCBDRBEFXASS-UHFFFAOYSA-N

$$$$
RCTFMGLPMMNKPQ-UHFFFAOYSA-N
     RDKit          3D

 15 15  0  0  0  0  0  0  0  0999 V2000
   11.8868    9.6690   21.5996 O   0  0  0  0  0  0  0  0  0  0  0  0
   11.7280   10.7842   22.0944 C   0  0  0  0  0  0  0  0  0  0  0  0
   12.5048   12.0217   21.6821 C   0  0  0  0  0  0  0  0  0  0  0  0
   13.7311   11.5927   20.4677 Cl  0  0  0  0  0  0  0  0  0  0  0  0
   10.6736   10.9344   23.1243 C   0  0  0  0  0  0  0  0  0  0  0  0
    9.9258    9.8043   23.4459 C   0  0  0  0  0  0  0  0  0  0  0  0
    8.8423    9.9239   24.3017 C   0  0  0  0  0  0  0  0  0  0  0  0
    8.4904   11.1518   24.8646 C   0  0  0  0  0  0  0  0  0  0  0  0
    7.3574   11.0685   25.6175 O   0  0  0  0  0  0  0  0  0  0  0  0
    6.7908   12.2679   26.1276 C   0  0  0  0  0  0  0  0  0  0  0  0
    5.4297   11.9463   26.7101 C   0  0  0  0  0  0  0  0  0  0  0  0
    5.5706   11.0497   27.7217 F   0  0  0  0  0  0  0  0  0  0  0  0
    9.2870   12.2664   24.5969 C   0  0  0  0  0  0  0  0  0  0  0  0
    9.0316   13.4842   25.1661 O   0  0  0  0  0  0  0  0  0  0  0  0
   10.3707   12.1633   23.7206 C   0  0  0  0  0  0  0  0  0  0  0  0
  1  2  2  0
  2  3  1  0
  3  4  1  0
  2  5  1  0
  5  6  2  0
  6  7  1  0
  7  8  2  0
  8  9  1  0
  9 10  1  0
 10 11  1  0
 11 12  1  0
  8 13  1  0
 13 14  1  0
 13 15  2  0
 15  5  1  0
M  END
>  <distance_score>  (232) 
0.393536

>  <ref_pdb>  (232) 
A1775a

>  <ref_mols>  (232) 
A1775a

>  <alias>  (232) 
None

>  <original SMILES>  (232) 
O=C(CCl)c1ccc(OCCF)c(O)c1

>  <inchikey>  (232) 
RCTFMGLPMMNKPQ-UHFFFAOYSA-N

>  <exports>  (232) 
['/opt/xchem-fragalysis-2/maxwin/2A_HIPPO/hippo/A71EV2A_10_recipes/Recipe_1LPVPY0_poses.sdf']

>  <original ID>  (232) 
RCTFMGLPMMNKPQ-UHFFFAOYSA-N

>  <energy_score>  (232) 
-16.246893

>  <tags>  (232) 
[]

>  <HIPPO ID>  (232) 
127370

>  <name>  (232) 
RCTFMGLPMMNKPQ-UHFFFAOYSA-N

$$$$
HBIAEMSUKSNSCA-UHFFFAOYSA-N
     RDKit          3D

 15 15  0  0  0  0  0  0  0  0999 V2000
   11.9151    9.5851   21.5168 O   0  0  0  0  0  0  0  0  0  0  0  0
   11.7464   10.7060   21.9895 C   0  0  0  0  0  0  0  0  0  0  0  0
   12.5468   11.9475   21.6029 C   0  0  0  0  0  0  0  0  0  0  0  0
   13.8051   11.5468   20.4272 Cl  0  0  0  0  0  0  0  0  0  0  0  0
   10.6673   10.8653   22.9890 C   0  0  0  0  0  0  0  0  0  0  0  0
    9.9106    9.7629   23.3885 C   0  0  0  0  0  0  0  0  0  0  0  0
    8.8769    9.9359   24.3051 C   0  0  0  0  0  0  0  0  0  0  0  0
    8.6513   11.1826   24.8735 C   0  0  0  0  0  0  0  0  0  0  0  0
    7.6376   11.3079   25.7769 O   0  0  0  0  0  0  0  0  0  0  0  0
    9.4532   12.2664   24.5357 C   0  0  0  0  0  0  0  0  0  0  0  0
    9.3102   13.4351   25.2453 O   0  0  0  0  0  0  0  0  0  0  0  0
   10.5475   14.1825   25.2782 C   0  0  0  0  0  0  0  0  0  0  0  0
   10.5833   15.0895   26.4751 C   0  0  0  0  0  0  0  0  0  0  0  0
    9.9141   16.2133   26.1570 F   0  0  0  0  0  0  0  0  0  0  0  0
   10.3980   12.1182   23.5275 C   0  0  0  0  0  0  0  0  0  0  0  0
  1  2  2  0
  2  3  1  0
  3  4  1  0
  2  5  1  0
  5  6  2  0
  6  7  1  0
  7  8  2  0
  8  9  1  0
  8 10  1  0
 10 11  1  0
 11 12  1  0
 12 13  1  0
 13 14  1  0
 10 15  2  0
 15  5  1  0
M  END
>  <distance_score>  (233) 
0.414488

>  <ref_pdb>  (233) 
A1775a

>  <ref_mols>  (233) 
A1775a

>  <alias>  (233) 
None

>  <original SMILES>  (233) 
O=C(CCl)c1ccc(O)c(OCCF)c1

>  <inchikey>  (233) 
HBIAEMSUKSNSCA-UHFFFAOYSA-N

>  <exports>  (233) 
['/opt/xchem-fragalysis-2/maxwin/2A_HIPPO/hippo/A71EV2A_10_recipes/Recipe_1LPVPY0_poses.sdf']

>  <original ID>  (233) 
HBIAEMSUKSNSCA-UHFFFAOYSA-N

>  <energy_score>  (233) 
-19.937501

>  <tags>  (233) 
[]

>  <HIPPO ID>  (233) 
127371

>  <name>  (233) 
HBIAEMSUKSNSCA-UHFFFAOYSA-N

$$$$
VLMBGEYNBGZYLX-UHFFFAOYSA-N
     RDKit          3D

 15 15  0  0  0  0  0  0  0  0999 V2000
    6.3148   12.8756   24.8283 C   0  0  0  0  0  0  0  0  0  0  0  0
    6.4986   11.9564   25.7889 C   0  0  0  0  0  0  0  0  0  0  0  0
    5.3803   11.6079   26.7413 C   0  0  0  0  0  0  0  0  0  0  0  0
    5.9492   11.8255   28.7680 I   0  0  0  0  0  0  0  0  0  0  0  0
    7.6171   11.1541   25.9365 O   0  0  0  0  0  0  0  0  0  0  0  0
    8.6114   11.1442   24.9980 C   0  0  0  0  0  0  0  0  0  0  0  0
    8.8382    9.9439   24.3359 C   0  0  0  0  0  0  0  0  0  0  0  0
    9.8735    9.8381   23.4211 C   0  0  0  0  0  0  0  0  0  0  0  0
   10.6795   10.9478   23.1531 C   0  0  0  0  0  0  0  0  0  0  0  0
   11.7156   10.7974   22.1050 C   0  0  0  0  0  0  0  0  0  0  0  0
   11.8612    9.6832   21.6025 O   0  0  0  0  0  0  0  0  0  0  0  0
   12.4944   12.0328   21.6913 C   0  0  0  0  0  0  0  0  0  0  0  0
   13.7162   11.5960   20.4722 Cl  0  0  0  0  0  0  0  0  0  0  0  0
   10.4717   12.1474   23.8457 C   0  0  0  0  0  0  0  0  0  0  0  0
    9.4487   12.2359   24.7885 C   0  0  0  0  0  0  0  0  0  0  0  0
  1  2  2  0
  2  3  1  0
  3  4  1  0
  2  5  1  0
  5  6  1  0
  6  7  2  0
  7  8  1  0
  8  9  2  0
  9 10  1  0
 10 11  2  0
 10 12  1  0
 12 13  1  0
  9 14  1  0
 14 15  2  0
 15  6  1  0
M  END
>  <distance_score>  (234) 
0.463682

>  <ref_pdb>  (234) 
A1775a

>  <ref_mols>  (234) 
A1775a

>  <alias>  (234) 
None

>  <original SMILES>  (234) 
C=C(CI)Oc1ccc(C(=O)CCl)cc1

>  <inchikey>  (234) 
VLMBGEYNBGZYLX-UHFFFAOYSA-N

>  <exports>  (234) 
['/opt/xchem-fragalysis-2/maxwin/2A_HIPPO/hippo/A71EV2A_10_recipes/Recipe_1LPVPY0_poses.sdf']

>  <original ID>  (234) 
VLMBGEYNBGZYLX-UHFFFAOYSA-N

>  <energy_score>  (234) 
-8.196392

>  <tags>  (234) 
[]

>  <HIPPO ID>  (234) 
127373

>  <name>  (234) 
VLMBGEYNBGZYLX-UHFFFAOYSA-N

$$$$
JAMOZBULKTXFSB-UHFFFAOYSA-N
     RDKit          3D

 15 15  0  0  0  0  0  0  0  0999 V2000
    5.0487    9.6460   26.6618 N   0  0  0  0  0  0  0  0  0  0  0  0
    5.2308   10.7904   27.5348 C   0  0  0  0  0  0  0  0  0  0  0  0
    5.4366   12.0719   26.7310 C   0  0  0  0  0  0  0  0  0  0  0  0
    6.8371   12.2506   26.1474 C   0  0  0  0  0  0  0  0  0  0  0  0
    7.3555   11.0240   25.6531 O   0  0  0  0  0  0  0  0  0  0  0  0
    8.4816   11.0796   24.8876 C   0  0  0  0  0  0  0  0  0  0  0  0
    9.2699   12.2015   24.6508 C   0  0  0  0  0  0  0  0  0  0  0  0
   10.3516   12.1223   23.7685 C   0  0  0  0  0  0  0  0  0  0  0  0
   10.6573   10.9098   23.1418 C   0  0  0  0  0  0  0  0  0  0  0  0
   11.7122   10.7791   22.1103 C   0  0  0  0  0  0  0  0  0  0  0  0
   11.8837    9.6682   21.6082 O   0  0  0  0  0  0  0  0  0  0  0  0
   12.4784   12.0258   21.7065 C   0  0  0  0  0  0  0  0  0  0  0  0
   13.7066   11.6033   20.4855 Cl  0  0  0  0  0  0  0  0  0  0  0  0
    9.9088    9.7716   23.4376 C   0  0  0  0  0  0  0  0  0  0  0  0
    8.8259    9.8673   24.2972 C   0  0  0  0  0  0  0  0  0  0  0  0
  1  2  1  0
  2  3  1  0
  3  4  1  0
  4  5  1  0
  5  6  1  0
  6  7  2  0
  7  8  1  0
  8  9  2  0
  9 10  1  0
 10 11  2  0
 10 12  1  0
 12 13  1  0
  9 14  1  0
 14 15  2  0
 15  6  1  0
M  END
>  <distance_score>  (235) 
0.383246

>  <ref_pdb>  (235) 
A1775a

>  <ref_mols>  (235) 
A1775a

>  <alias>  (235) 
None

>  <original SMILES>  (235) 
NCCCOc1ccc(C(=O)CCl)cc1

>  <inchikey>  (235) 
JAMOZBULKTXFSB-UHFFFAOYSA-N

>  <exports>  (235) 
['/opt/xchem-fragalysis-2/maxwin/2A_HIPPO/hippo/A71EV2A_10_recipes/Recipe_1LPVPY0_poses.sdf']

>  <original ID>  (235) 
JAMOZBULKTXFSB-UHFFFAOYSA-N

>  <energy_score>  (235) 
-23.686595

>  <tags>  (235) 
[]

>  <HIPPO ID>  (235) 
127404

>  <name>  (235) 
JAMOZBULKTXFSB-UHFFFAOYSA-N

$$$$
DGMPBOVWZDSEJP-UHFFFAOYSA-N
     RDKit          3D

 15 15  0  0  0  0  0  0  0  0999 V2000
    3.9975   10.6044   27.9938 C   0  0  0  0  0  0  0  0  0  0  0  0
    4.9589   11.0112   26.8932 C   0  0  0  0  0  0  0  0  0  0  0  0
    6.0539   11.9352   27.4059 C   0  0  0  0  0  0  0  0  0  0  0  0
    7.0537   12.2844   26.3106 C   0  0  0  0  0  0  0  0  0  0  0  0
    7.5435   11.0710   25.7599 O   0  0  0  0  0  0  0  0  0  0  0  0
    8.5856   11.1344   24.8914 C   0  0  0  0  0  0  0  0  0  0  0  0
    9.3331   12.2635   24.5785 C   0  0  0  0  0  0  0  0  0  0  0  0
   10.3851   12.1687   23.6675 C   0  0  0  0  0  0  0  0  0  0  0  0
   10.6926   10.9380   23.0786 C   0  0  0  0  0  0  0  0  0  0  0  0
   11.7496   10.7874   22.0555 C   0  0  0  0  0  0  0  0  0  0  0  0
   11.9113    9.6716   21.5625 O   0  0  0  0  0  0  0  0  0  0  0  0
   12.5294   12.0242   21.6530 C   0  0  0  0  0  0  0  0  0  0  0  0
   13.7625   11.5943   20.4472 Cl  0  0  0  0  0  0  0  0  0  0  0  0
    9.9555    9.8030   23.4122 C   0  0  0  0  0  0  0  0  0  0  0  0
    8.9020    9.9125   24.3039 C   0  0  0  0  0  0  0  0  0  0  0  0
  1  2  1  0
  2  3  1  0
  3  4  1  0
  4  5  1  0
  5  6  1  0
  6  7  2  0
  7  8  1  0
  8  9  2  0
  9 10  1  0
 10 11  2  0
 10 12  1  0
 12 13  1  0
  9 14  1  0
 14 15  2  0
 15  6  1  0
M  END
>  <distance_score>  (236) 
0.459507

>  <ref_pdb>  (236) 
A1775a

>  <ref_mols>  (236) 
A1775a

>  <alias>  (236) 
None

>  <original SMILES>  (236) 
CCCCOc1ccc(C(=O)CCl)cc1

>  <inchikey>  (236) 
DGMPBOVWZDSEJP-UHFFFAOYSA-N

>  <exports>  (236) 
['/opt/xchem-fragalysis-2/maxwin/2A_HIPPO/hippo/A71EV2A_10_recipes/Recipe_1LPVPY0_poses.sdf']

>  <original ID>  (236) 
DGMPBOVWZDSEJP-UHFFFAOYSA-N

>  <energy_score>  (236) 
-31.306259

>  <tags>  (236) 
[]

>  <HIPPO ID>  (236) 
127420

>  <name>  (236) 
DGMPBOVWZDSEJP-UHFFFAOYSA-N

$$$$
UEOYGLSGPSAPFF-UHFFFAOYSA-N
     RDKit          3D

 15 15  0  0  0  0  0  0  0  0999 V2000
    4.5707   13.8385   28.3645 C   0  0  0  0  0  0  0  0  0  0  0  0
    5.0663   12.9407   27.7413 C   0  0  0  0  0  0  0  0  0  0  0  0
    5.6150   11.8023   26.9991 C   0  0  0  0  0  0  0  0  0  0  0  0
    6.8411   12.1838   26.1818 C   0  0  0  0  0  0  0  0  0  0  0  0
    7.3810   10.9780   25.6562 O   0  0  0  0  0  0  0  0  0  0  0  0
    8.4849   11.0610   24.8655 C   0  0  0  0  0  0  0  0  0  0  0  0
    8.8529    9.8488   24.2894 C   0  0  0  0  0  0  0  0  0  0  0  0
    9.9349    9.7637   23.4295 C   0  0  0  0  0  0  0  0  0  0  0  0
   10.6573   10.9133   23.1157 C   0  0  0  0  0  0  0  0  0  0  0  0
   11.7205   10.7838   22.0934 C   0  0  0  0  0  0  0  0  0  0  0  0
   11.8954    9.6722   21.5943 O   0  0  0  0  0  0  0  0  0  0  0  0
   12.4894   12.0292   21.6947 C   0  0  0  0  0  0  0  0  0  0  0  0
   13.7204   11.6050   20.4783 Cl  0  0  0  0  0  0  0  0  0  0  0  0
   10.3179   12.1313   23.7147 C   0  0  0  0  0  0  0  0  0  0  0  0
    9.2347   12.2008   24.5969 C   0  0  0  0  0  0  0  0  0  0  0  0
  1  2  3  0
  2  3  1  0
  3  4  1  0
  4  5  1  0
  5  6  1  0
  6  7  2  0
  7  8  1  0
  8  9  2  0
  9 10  1  0
 10 11  2  0
 10 12  1  0
 12 13  1  0
  9 14  1  0
 14 15  2  0
 15  6  1  0
M  END
>  <distance_score>  (237) 
0.401963

>  <ref_pdb>  (237) 
A1775a

>  <ref_mols>  (237) 
A1775a

>  <alias>  (237) 
None

>  <original SMILES>  (237) 
C#CCCOc1ccc(C(=O)CCl)cc1

>  <inchikey>  (237) 
UEOYGLSGPSAPFF-UHFFFAOYSA-N

>  <exports>  (237) 
['/opt/xchem-fragalysis-2/maxwin/2A_HIPPO/hippo/A71EV2A_10_recipes/Recipe_1LPVPY0_poses.sdf']

>  <original ID>  (237) 
UEOYGLSGPSAPFF-UHFFFAOYSA-N

>  <energy_score>  (237) 
-83.821219

>  <tags>  (237) 
[]

>  <HIPPO ID>  (237) 
127421

>  <name>  (237) 
UEOYGLSGPSAPFF-UHFFFAOYSA-N

$$$$
YNUVIODWLAOWTL-UHFFFAOYSA-N
     RDKit          3D

 15 15  0  0  0  0  0  0  0  0999 V2000
    6.0670   10.8312   29.1277 N   0  0  0  0  0  0  0  0  0  0  0  0
    5.7952   11.3232   28.1130 C   0  0  0  0  0  0  0  0  0  0  0  0
    5.4937   11.9690   26.8314 C   0  0  0  0  0  0  0  0  0  0  0  0
    6.7795   12.2627   26.0716 C   0  0  0  0  0  0  0  0  0  0  0  0
    7.3427   11.0300   25.6346 O   0  0  0  0  0  0  0  0  0  0  0  0
    8.4644   11.0895   24.8632 C   0  0  0  0  0  0  0  0  0  0  0  0
    8.8318    9.8700   24.3022 C   0  0  0  0  0  0  0  0  0  0  0  0
    9.9191    9.7728   23.4478 C   0  0  0  0  0  0  0  0  0  0  0  0
   10.6501   10.9160   23.1291 C   0  0  0  0  0  0  0  0  0  0  0  0
   11.7121   10.7809   22.1054 C   0  0  0  0  0  0  0  0  0  0  0  0
   11.8825    9.6691   21.6057 O   0  0  0  0  0  0  0  0  0  0  0  0
   12.4826   12.0254   21.7032 C   0  0  0  0  0  0  0  0  0  0  0  0
   13.7112   11.6017   20.4842 Cl  0  0  0  0  0  0  0  0  0  0  0  0
   10.3191   12.1377   23.7240 C   0  0  0  0  0  0  0  0  0  0  0  0
    9.2309   12.2198   24.5981 C   0  0  0  0  0  0  0  0  0  0  0  0
  1  2  3  0
  2  3  1  0
  3  4  1  0
  4  5  1  0
  5  6  1  0
  6  7  2  0
  7  8  1  0
  8  9  2  0
  9 10  1  0
 10 11  2  0
 10 12  1  0
 12 13  1  0
  9 14  1  0
 14 15  2  0
 15  6  1  0
M  END
>  <distance_score>  (238) 
0.393539

>  <ref_pdb>  (238) 
A1775a

>  <ref_mols>  (238) 
A1775a

>  <alias>  (238) 
None

>  <original SMILES>  (238) 
N#CCCOc1ccc(C(=O)CCl)cc1

>  <inchikey>  (238) 
YNUVIODWLAOWTL-UHFFFAOYSA-N

>  <exports>  (238) 
['/opt/xchem-fragalysis-2/maxwin/2A_HIPPO/hippo/A71EV2A_10_recipes/Recipe_1LPVPY0_poses.sdf']

>  <original ID>  (238) 
YNUVIODWLAOWTL-UHFFFAOYSA-N

>  <energy_score>  (238) 
-34.603505

>  <tags>  (238) 
[]

>  <HIPPO ID>  (238) 
127425

>  <name>  (238) 
YNUVIODWLAOWTL-UHFFFAOYSA-N

$$$$
KYWLZCULDRIGQM-NSCUHMNNSA-N
     RDKit          3D

 15 15  0  0  0  0  0  0  0  0999 V2000
    3.8535   10.5965   28.0571 C   0  0  0  0  0  0  0  0  0  0  0  0
    5.0869   10.7911   27.2388 C   0  0  0  0  0  0  0  0  0  0  0  0
    5.4876   11.9770   26.7522 C   0  0  0  0  0  0  0  0  0  0  0  0
    6.7353   12.2317   25.9578 C   0  0  0  0  0  0  0  0  0  0  0  0
    7.4061   11.0108   25.6798 O   0  0  0  0  0  0  0  0  0  0  0  0
    8.4985   11.0771   24.8691 C   0  0  0  0  0  0  0  0  0  0  0  0
    9.2545   12.2124   24.5955 C   0  0  0  0  0  0  0  0  0  0  0  0
   10.3322   12.1355   23.7095 C   0  0  0  0  0  0  0  0  0  0  0  0
   10.6620   10.9144   23.1125 C   0  0  0  0  0  0  0  0  0  0  0  0
   11.7233   10.7809   22.0892 C   0  0  0  0  0  0  0  0  0  0  0  0
   11.8940    9.6694   21.5888 O   0  0  0  0  0  0  0  0  0  0  0  0
   12.4943   12.0254   21.6902 C   0  0  0  0  0  0  0  0  0  0  0  0
   13.7250   11.6020   20.4742 Cl  0  0  0  0  0  0  0  0  0  0  0  0
    9.9356    9.7683   23.4328 C   0  0  0  0  0  0  0  0  0  0  0  0
    8.8586    9.8600   24.2992 C   0  0  0  0  0  0  0  0  0  0  0  0
  1  2  1  0
  2  3  2  0
  3  4  1  0
  4  5  1  0
  5  6  1  0
  6  7  2  0
  7  8  1  0
  8  9  2  0
  9 10  1  0
 10 11  2  0
 10 12  1  0
 12 13  1  0
  9 14  1  0
 14 15  2  0
 15  6  1  0
M  END
>  <distance_score>  (239) 
0.385493

>  <ref_pdb>  (239) 
A1775a

>  <ref_mols>  (239) 
A1775a

>  <alias>  (239) 
None

>  <original SMILES>  (239) 
C/C=C/COc1ccc(C(=O)CCl)cc1

>  <inchikey>  (239) 
KYWLZCULDRIGQM-NSCUHMNNSA-N

>  <exports>  (239) 
['/opt/xchem-fragalysis-2/maxwin/2A_HIPPO/hippo/A71EV2A_10_recipes/Recipe_1LPVPY0_poses.sdf']

>  <original ID>  (239) 
KYWLZCULDRIGQM-NSCUHMNNSA-N

>  <energy_score>  (239) 
-13.537502

>  <tags>  (239) 
[]

>  <HIPPO ID>  (239) 
127430

>  <name>  (239) 
KYWLZCULDRIGQM-NSCUHMNNSA-N

$$$$
NKIMAFBIIQDSBW-UHFFFAOYSA-N
     RDKit          3D

 15 15  0  0  0  0  0  0  0  0999 V2000
    4.5404   13.0048   26.8162 C   0  0  0  0  0  0  0  0  0  0  0  0
    5.4652   12.0362   26.7471 C   0  0  0  0  0  0  0  0  0  0  0  0
    5.1115   10.3461   27.4638 Br  0  0  0  0  0  0  0  0  0  0  0  0
    6.8061   12.2400   26.0906 C   0  0  0  0  0  0  0  0  0  0  0  0
    7.3314   11.0205   25.5840 O   0  0  0  0  0  0  0  0  0  0  0  0
    8.4725   11.0792   24.8436 C   0  0  0  0  0  0  0  0  0  0  0  0
    9.2486   12.2073   24.5979 C   0  0  0  0  0  0  0  0  0  0  0  0
   10.3411   12.1267   23.7295 C   0  0  0  0  0  0  0  0  0  0  0  0
   10.6673   10.9082   23.1251 C   0  0  0  0  0  0  0  0  0  0  0  0
   11.7253   10.7777   22.0975 C   0  0  0  0  0  0  0  0  0  0  0  0
   11.8958    9.6670   21.5954 O   0  0  0  0  0  0  0  0  0  0  0  0
   12.4917   12.0240   21.6948 C   0  0  0  0  0  0  0  0  0  0  0  0
   13.7210   11.6026   20.4766 Cl  0  0  0  0  0  0  0  0  0  0  0  0
    9.9329    9.7647   23.4341 C   0  0  0  0  0  0  0  0  0  0  0  0
    8.8405    9.8607   24.2807 C   0  0  0  0  0  0  0  0  0  0  0  0
  1  2  2  0
  2  3  1  0
  2  4  1  0
  4  5  1  0
  5  6  1  0
  6  7  2  0
  7  8  1  0
  8  9  2  0
  9 10  1  0
 10 11  2  0
 10 12  1  0
 12 13  1  0
  9 14  1  0
 14 15  2  0
 15  6  1  0
M  END
>  <distance_score>  (240) 
0.380237

>  <ref_pdb>  (240) 
A1775a

>  <ref_mols>  (240) 
A1775a

>  <alias>  (240) 
None

>  <original SMILES>  (240) 
C=C(Br)COc1ccc(C(=O)CCl)cc1

>  <inchikey>  (240) 
NKIMAFBIIQDSBW-UHFFFAOYSA-N

>  <exports>  (240) 
['/opt/xchem-fragalysis-2/maxwin/2A_HIPPO/hippo/A71EV2A_10_recipes/Recipe_1LPVPY0_poses.sdf']

>  <original ID>  (240) 
NKIMAFBIIQDSBW-UHFFFAOYSA-N

>  <energy_score>  (240) 
-27.53071

>  <tags>  (240) 
[]

>  <HIPPO ID>  (240) 
127498

>  <name>  (240) 
NKIMAFBIIQDSBW-UHFFFAOYSA-N

$$$$
BAXVWTXUVQAQHV-UHFFFAOYSA-N
     RDKit          3D

 16 16  0  0  0  0  0  0  0  0999 V2000
    9.2588    7.6484   20.2539 N   0  0  0  0  0  0  0  0  0  0  0  0
    9.0650    7.3622   21.6793 C   0  0  0  0  0  0  0  0  0  0  0  0
    9.2607    8.5297   22.6057 C   0  0  0  0  0  0  0  0  0  0  0  0
   10.4238    8.3223   23.5344 C   0  0  0  0  0  0  0  0  0  0  0  0
   10.8699    9.4716   24.2391 O   0  0  0  0  0  0  0  0  0  0  0  0
   10.1801   10.6143   24.0138 C   0  0  0  0  0  0  0  0  0  0  0  0
    9.0258   10.8567   24.7501 C   0  0  0  0  0  0  0  0  0  0  0  0
    8.3022   12.0102   24.5404 C   0  0  0  0  0  0  0  0  0  0  0  0
    7.1338   12.1371   25.2239 O   0  0  0  0  0  0  0  0  0  0  0  0
    8.7539   12.9570   23.6342 C   0  0  0  0  0  0  0  0  0  0  0  0
    9.9324   12.7266   22.9147 C   0  0  0  0  0  0  0  0  0  0  0  0
   10.6324   11.5262   23.0712 C   0  0  0  0  0  0  0  0  0  0  0  0
   11.7069   11.1221   22.1228 C   0  0  0  0  0  0  0  0  0  0  0  0
   11.7933    9.9582   21.7334 O   0  0  0  0  0  0  0  0  0  0  0  0
   12.5982   12.2181   21.6301 C   0  0  0  0  0  0  0  0  0  0  0  0
   13.7851   11.5848   20.4657 Cl  0  0  0  0  0  0  0  0  0  0  0  0
  1  2  1  0
  2  3  1  0
  3  4  1  0
  4  5  1  0
  5  6  1  0
  6  7  2  0
  7  8  1  0
  8  9  1  0
  8 10  2  0
 10 11  1  0
 11 12  2  0
 12 13  1  0
 13 14  2  0
 13 15  1  0
 15 16  1  0
 12  6  1  0
M  END
>  <distance_score>  (241) 
1.137813

>  <ref_pdb>  (241) 
A1775a

>  <ref_mols>  (241) 
A1775a

>  <alias>  (241) 
None

>  <original SMILES>  (241) 
NCCCOc1cc(O)ccc1C(=O)CCl

>  <inchikey>  (241) 
BAXVWTXUVQAQHV-UHFFFAOYSA-N

>  <exports>  (241) 
['/opt/xchem-fragalysis-2/maxwin/2A_HIPPO/hippo/A71EV2A_10_recipes/Recipe_1LPVPY0_poses.sdf']

>  <original ID>  (241) 
BAXVWTXUVQAQHV-UHFFFAOYSA-N

>  <energy_score>  (241) 
0.608924

>  <tags>  (241) 
[]

>  <HIPPO ID>  (241) 
127501

>  <name>  (241) 
BAXVWTXUVQAQHV-UHFFFAOYSA-N

$$$$
FLENGHQVXJQOAX-UHFFFAOYSA-N
     RDKit          3D

 16 16  0  0  0  0  0  0  0  0999 V2000
    5.6754   13.6180   28.7996 N   0  0  0  0  0  0  0  0  0  0  0  0
    4.8991   13.1146   27.6600 C   0  0  0  0  0  0  0  0  0  0  0  0
    5.5656   11.9164   26.9959 C   0  0  0  0  0  0  0  0  0  0  0  0
    6.8407   12.2674   26.2399 C   0  0  0  0  0  0  0  0  0  0  0  0
    7.3598   11.0513   25.7141 O   0  0  0  0  0  0  0  0  0  0  0  0
    8.4599   11.1161   24.9146 C   0  0  0  0  0  0  0  0  0  0  0  0
    9.2233   12.2426   24.6305 C   0  0  0  0  0  0  0  0  0  0  0  0
   10.3018   12.1527   23.7411 C   0  0  0  0  0  0  0  0  0  0  0  0
   10.6335   10.9254   23.1520 C   0  0  0  0  0  0  0  0  0  0  0  0
   11.7017   10.8031   22.1315 C   0  0  0  0  0  0  0  0  0  0  0  0
   11.8922    9.6828   21.6513 O   0  0  0  0  0  0  0  0  0  0  0  0
   12.4664   12.0469   21.7202 C   0  0  0  0  0  0  0  0  0  0  0  0
   13.6896   11.6086   20.4974 Cl  0  0  0  0  0  0  0  0  0  0  0  0
    9.8954    9.7910   23.4935 C   0  0  0  0  0  0  0  0  0  0  0  0
   10.1459    8.5370   23.0140 O   0  0  0  0  0  0  0  0  0  0  0  0
    8.8140    9.8967   24.3492 C   0  0  0  0  0  0  0  0  0  0  0  0
  1  2  1  0
  2  3  1  0
  3  4  1  0
  4  5  1  0
  5  6  1  0
  6  7  2  0
  7  8  1  0
  8  9  2  0
  9 10  1  0
 10 11  2  0
 10 12  1  0
 12 13  1  0
  9 14  1  0
 14 15  1  0
 14 16  2  0
 16  6  1  0
M  END
>  <distance_score>  (242) 
0.423529

>  <ref_pdb>  (242) 
A1775a

>  <ref_mols>  (242) 
A1775a

>  <alias>  (242) 
None

>  <original SMILES>  (242) 
NCCCOc1ccc(C(=O)CCl)c(O)c1

>  <inchikey>  (242) 
FLENGHQVXJQOAX-UHFFFAOYSA-N

>  <exports>  (242) 
['/opt/xchem-fragalysis-2/maxwin/2A_HIPPO/hippo/A71EV2A_10_recipes/Recipe_1LPVPY0_poses.sdf']

>  <original ID>  (242) 
FLENGHQVXJQOAX-UHFFFAOYSA-N

>  <energy_score>  (242) 
-59.066006

>  <tags>  (242) 
[]

>  <HIPPO ID>  (242) 
127513

>  <name>  (242) 
FLENGHQVXJQOAX-UHFFFAOYSA-N

$$$$
ANLPAGZHBUWNFP-UHFFFAOYSA-N
     RDKit          3D

 16 16  0  0  0  0  0  0  0  0999 V2000
    5.6360    8.8929   28.2542 C   0  0  0  0  0  0  0  0  0  0  0  0
    5.3749    9.1093   26.9565 C   0  0  0  0  0  0  0  0  0  0  0  0
    3.8666    8.1228   26.3125 Br  0  0  0  0  0  0  0  0  0  0  0  0
    6.1991   10.1277   26.1283 C   0  0  0  0  0  0  0  0  0  0  0  0
    7.3135    9.7089   25.2771 O   0  0  0  0  0  0  0  0  0  0  0  0
    8.2464   10.6461   24.8502 C   0  0  0  0  0  0  0  0  0  0  0  0
    9.2929   10.2153   23.9884 C   0  0  0  0  0  0  0  0  0  0  0  0
   10.3031   11.1166   23.5486 C   0  0  0  0  0  0  0  0  0  0  0  0
   11.3287   10.7747   22.4916 C   0  0  0  0  0  0  0  0  0  0  0  0
   11.3874    9.6224   22.0714 O   0  0  0  0  0  0  0  0  0  0  0  0
   12.1865   11.9458   21.9716 C   0  0  0  0  0  0  0  0  0  0  0  0
   13.3678   11.4788   20.7291 Cl  0  0  0  0  0  0  0  0  0  0  0  0
   10.3177   12.4090   24.0760 C   0  0  0  0  0  0  0  0  0  0  0  0
    9.2998   12.8379   24.9050 C   0  0  0  0  0  0  0  0  0  0  0  0
    8.2447   11.9913   25.2153 C   0  0  0  0  0  0  0  0  0  0  0  0
    7.2091   12.6004   25.8534 O   0  0  0  0  0  0  0  0  0  0  0  0
  1  2  2  0
  2  3  1  0
  2  4  1  0
  4  5  1  0
  5  6  1  0
  6  7  2  0
  7  8  1  0
  8  9  1  0
  9 10  2  0
  9 11  1  0
 11 12  1  0
  8 13  2  0
 13 14  1  0
 14 15  2  0
 15 16  1  0
 15  6  1  0
M  END
>  <distance_score>  (243) 
1.044167

>  <ref_pdb>  (243) 
A1775a

>  <ref_mols>  (243) 
A1775a

>  <alias>  (243) 
None

>  <original SMILES>  (243) 
C=C(Br)COc1cc(C(=O)CCl)ccc1O

>  <inchikey>  (243) 
ANLPAGZHBUWNFP-UHFFFAOYSA-N

>  <exports>  (243) 
['/opt/xchem-fragalysis-2/maxwin/2A_HIPPO/hippo/A71EV2A_10_recipes/Recipe_1LPVPY0_poses.sdf']

>  <original ID>  (243) 
ANLPAGZHBUWNFP-UHFFFAOYSA-N

>  <energy_score>  (243) 
-11.854258

>  <tags>  (243) 
[]

>  <HIPPO ID>  (243) 
127515

>  <name>  (243) 
ANLPAGZHBUWNFP-UHFFFAOYSA-N

$$$$
LCDIBTLBOZVGON-UHFFFAOYSA-N
     RDKit          3D

 16 16  0  0  0  0  0  0  0  0999 V2000
    5.1248   10.6197   26.9963 C   0  0  0  0  0  0  0  0  0  0  0  0
    5.6909   11.8346   26.9739 C   0  0  0  0  0  0  0  0  0  0  0  0
    5.0110   13.1865   28.0764 Br  0  0  0  0  0  0  0  0  0  0  0  0
    6.9072   12.2149   26.1624 C   0  0  0  0  0  0  0  0  0  0  0  0
    7.4992   11.0401   25.6256 O   0  0  0  0  0  0  0  0  0  0  0  0
    8.5985   11.1350   24.8300 C   0  0  0  0  0  0  0  0  0  0  0  0
    9.3726   12.2681   24.6102 C   0  0  0  0  0  0  0  0  0  0  0  0
   10.4525   12.2097   23.7160 C   0  0  0  0  0  0  0  0  0  0  0  0
   10.7688   11.0062   23.0713 C   0  0  0  0  0  0  0  0  0  0  0  0
   11.8099   10.8561   22.0365 C   0  0  0  0  0  0  0  0  0  0  0  0
   11.9584    9.7409   21.5352 O   0  0  0  0  0  0  0  0  0  0  0  0
   12.5820   12.0819   21.6231 C   0  0  0  0  0  0  0  0  0  0  0  0
   13.8030   11.6217   20.4151 Cl  0  0  0  0  0  0  0  0  0  0  0  0
   10.0323    9.8640   23.3347 C   0  0  0  0  0  0  0  0  0  0  0  0
    8.9490    9.9534   24.1754 C   0  0  0  0  0  0  0  0  0  0  0  0
    8.1704    8.8503   24.2960 O   0  0  0  0  0  0  0  0  0  0  0  0
  1  2  2  0
  2  3  1  0
  2  4  1  0
  4  5  1  0
  5  6  1  0
  6  7  2  0
  7  8  1  0
  8  9  2  0
  9 10  1  0
 10 11  2  0
 10 12  1  0
 12 13  1  0
  9 14  1  0
 14 15  2  0
 15 16  1  0
 15  6  1  0
M  END
>  <distance_score>  (244) 
0.410855

>  <ref_pdb>  (244) 
A1775a

>  <ref_mols>  (244) 
A1775a

>  <alias>  (244) 
None

>  <original SMILES>  (244) 
C=C(Br)COc1ccc(C(=O)CCl)cc1O

>  <inchikey>  (244) 
LCDIBTLBOZVGON-UHFFFAOYSA-N

>  <exports>  (244) 
['/opt/xchem-fragalysis-2/maxwin/2A_HIPPO/hippo/A71EV2A_10_recipes/Recipe_1LPVPY0_poses.sdf']

>  <original ID>  (244) 
LCDIBTLBOZVGON-UHFFFAOYSA-N

>  <energy_score>  (244) 
-2.790003

>  <tags>  (244) 
[]

>  <HIPPO ID>  (244) 
127516

>  <name>  (244) 
LCDIBTLBOZVGON-UHFFFAOYSA-N

$$$$
LZQUNVKGMJZESZ-UHFFFAOYSA-N
     RDKit          3D

 16 16  0  0  0  0  0  0  0  0999 V2000
    4.7910    7.6359   27.9754 N   0  0  0  0  0  0  0  0  0  0  0  0
    5.4187    8.9541   27.8262 C   0  0  0  0  0  0  0  0  0  0  0  0
    5.4100    9.5341   26.4031 C   0  0  0  0  0  0  0  0  0  0  0  0
    6.5976   10.4138   25.9849 C   0  0  0  0  0  0  0  0  0  0  0  0
    7.6509    9.8727   25.1619 O   0  0  0  0  0  0  0  0  0  0  0  0
    8.6134   10.7907   24.7630 C   0  0  0  0  0  0  0  0  0  0  0  0
    9.5585   10.3640   23.8080 C   0  0  0  0  0  0  0  0  0  0  0  0
   10.5492   11.2553   23.3327 C   0  0  0  0  0  0  0  0  0  0  0  0
   11.5355   10.8663   22.2720 C   0  0  0  0  0  0  0  0  0  0  0  0
   11.5562    9.7031   21.8781 O   0  0  0  0  0  0  0  0  0  0  0  0
   12.4274   11.9961   21.7379 C   0  0  0  0  0  0  0  0  0  0  0  0
   13.6126   11.4631   20.5405 Cl  0  0  0  0  0  0  0  0  0  0  0  0
   10.6007   12.5588   23.8387 C   0  0  0  0  0  0  0  0  0  0  0  0
    9.7013   12.9780   24.7949 C   0  0  0  0  0  0  0  0  0  0  0  0
    8.7268   12.1025   25.2509 C   0  0  0  0  0  0  0  0  0  0  0  0
    7.9019   12.5986   26.2170 O   0  0  0  0  0  0  0  0  0  0  0  0
  1  2  1  0
  2  3  1  0
  3  4  1  0
  4  5  1  0
  5  6  1  0
  6  7  2  0
  7  8  1  0
  8  9  1  0
  9 10  2  0
  9 11  1  0
 11 12  1  0
  8 13  2  0
 13 14  1  0
 14 15  2  0
 15 16  1  0
 15  6  1  0
M  END
>  <distance_score>  (245) 
1.103395

>  <ref_pdb>  (245) 
A1775a

>  <ref_mols>  (245) 
A1775a

>  <alias>  (245) 
None

>  <original SMILES>  (245) 
NCCCOc1cc(C(=O)CCl)ccc1O

>  <inchikey>  (245) 
LZQUNVKGMJZESZ-UHFFFAOYSA-N

>  <exports>  (245) 
['/opt/xchem-fragalysis-2/maxwin/2A_HIPPO/hippo/A71EV2A_10_recipes/Recipe_1LPVPY0_poses.sdf']

>  <original ID>  (245) 
LZQUNVKGMJZESZ-UHFFFAOYSA-N

>  <energy_score>  (245) 
-13.768523

>  <tags>  (245) 
[]

>  <HIPPO ID>  (245) 
127522

>  <name>  (245) 
LZQUNVKGMJZESZ-UHFFFAOYSA-N

$$$$
NBQPNIAKDXXXTP-UHFFFAOYSA-N
     RDKit          3D

 16 16  0  0  0  0  0  0  0  0999 V2000
    6.1189   10.6192   28.7292 N   0  0  0  0  0  0  0  0  0  0  0  0
    5.2999   10.5831   27.5179 C   0  0  0  0  0  0  0  0  0  0  0  0
    5.3856   11.8863   26.7288 C   0  0  0  0  0  0  0  0  0  0  0  0
    6.7755   12.2086   26.1931 C   0  0  0  0  0  0  0  0  0  0  0  0
    7.3583   11.0399   25.6409 O   0  0  0  0  0  0  0  0  0  0  0  0
    8.4812   11.1306   24.8802 C   0  0  0  0  0  0  0  0  0  0  0  0
    8.8352    9.9099   24.3053 C   0  0  0  0  0  0  0  0  0  0  0  0
    9.9137    9.8023   23.4406 C   0  0  0  0  0  0  0  0  0  0  0  0
   10.6490   10.9400   23.1132 C   0  0  0  0  0  0  0  0  0  0  0  0
   11.7135   10.7938   22.0954 C   0  0  0  0  0  0  0  0  0  0  0  0
   11.8844    9.6763   21.6080 O   0  0  0  0  0  0  0  0  0  0  0  0
   12.4911   12.0327   21.6907 C   0  0  0  0  0  0  0  0  0  0  0  0
   13.7213   11.5987   20.4775 Cl  0  0  0  0  0  0  0  0  0  0  0  0
   10.3315   12.1645   23.7052 C   0  0  0  0  0  0  0  0  0  0  0  0
    9.2666   12.2455   24.6011 C   0  0  0  0  0  0  0  0  0  0  0  0
    9.0721   13.4673   25.1750 O   0  0  0  0  0  0  0  0  0  0  0  0
  1  2  1  0
  2  3  1  0
  3  4  1  0
  4  5  1  0
  5  6  1  0
  6  7  2  0
  7  8  1  0
  8  9  2  0
  9 10  1  0
 10 11  2  0
 10 12  1  0
 12 13  1  0
  9 14  1  0
 14 15  2  0
 15 16  1  0
 15  6  1  0
M  END
>  <distance_score>  (246) 
0.407466

>  <ref_pdb>  (246) 
A1775a

>  <ref_mols>  (246) 
A1775a

>  <alias>  (246) 
None

>  <original SMILES>  (246) 
NCCCOc1ccc(C(=O)CCl)cc1O

>  <inchikey>  (246) 
NBQPNIAKDXXXTP-UHFFFAOYSA-N

>  <exports>  (246) 
['/opt/xchem-fragalysis-2/maxwin/2A_HIPPO/hippo/A71EV2A_10_recipes/Recipe_1LPVPY0_poses.sdf']

>  <original ID>  (246) 
NBQPNIAKDXXXTP-UHFFFAOYSA-N

>  <energy_score>  (246) 
-15.322667

>  <tags>  (246) 
[]

>  <HIPPO ID>  (246) 
127524

>  <name>  (246) 
NBQPNIAKDXXXTP-UHFFFAOYSA-N

$$$$
DAIUOFUKXNJLLH-UHFFFAOYSA-N
     RDKit          3D

 16 16  0  0  0  0  0  0  0  0999 V2000
    3.7893   12.9170   25.7884 N   0  0  0  0  0  0  0  0  0  0  0  0
    4.6647   12.4565   26.3879 C   0  0  0  0  0  0  0  0  0  0  0  0
    5.7995   11.9668   27.1610 C   0  0  0  0  0  0  0  0  0  0  0  0
    7.0754   12.2249   26.3795 C   0  0  0  0  0  0  0  0  0  0  0  0
    7.4447   11.0318   25.6986 O   0  0  0  0  0  0  0  0  0  0  0  0
    8.5508   11.0962   24.9029 C   0  0  0  0  0  0  0  0  0  0  0  0
    8.8702    9.8995   24.2722 C   0  0  0  0  0  0  0  0  0  0  0  0
    9.9468    9.8215   23.4017 C   0  0  0  0  0  0  0  0  0  0  0  0
   10.7169   10.9574   23.1314 C   0  0  0  0  0  0  0  0  0  0  0  0
   11.7603   10.8105   22.0868 C   0  0  0  0  0  0  0  0  0  0  0  0
   11.9049    9.6922   21.5877 O   0  0  0  0  0  0  0  0  0  0  0  0
   12.5447   12.0343   21.6540 C   0  0  0  0  0  0  0  0  0  0  0  0
   13.7580   11.5821   20.4308 Cl  0  0  0  0  0  0  0  0  0  0  0  0
   10.4203   12.1508   23.7971 C   0  0  0  0  0  0  0  0  0  0  0  0
   11.1707   13.2766   23.6116 O   0  0  0  0  0  0  0  0  0  0  0  0
    9.3448   12.2194   24.6845 C   0  0  0  0  0  0  0  0  0  0  0  0
  1  2  3  0
  2  3  1  0
  3  4  1  0
  4  5  1  0
  5  6  1  0
  6  7  2  0
  7  8  1  0
  8  9  2  0
  9 10  1  0
 10 11  2  0
 10 12  1  0
 12 13  1  0
  9 14  1  0
 14 15  1  0
 14 16  2  0
 16  6  1  0
M  END
>  <distance_score>  (247) 
0.41634

>  <ref_pdb>  (247) 
A1775a

>  <ref_mols>  (247) 
A1775a

>  <alias>  (247) 
None

>  <original SMILES>  (247) 
N#CCCOc1ccc(C(=O)CCl)c(O)c1

>  <inchikey>  (247) 
DAIUOFUKXNJLLH-UHFFFAOYSA-N

>  <exports>  (247) 
['/opt/xchem-fragalysis-2/maxwin/2A_HIPPO/hippo/A71EV2A_10_recipes/Recipe_1LPVPY0_poses.sdf']

>  <original ID>  (247) 
DAIUOFUKXNJLLH-UHFFFAOYSA-N

>  <energy_score>  (247) 
-16.10271

>  <tags>  (247) 
[]

>  <HIPPO ID>  (247) 
127579

>  <name>  (247) 
DAIUOFUKXNJLLH-UHFFFAOYSA-N

$$$$
PNJINMPTESXHGT-UHFFFAOYSA-N
     RDKit          3D

 16 16  0  0  0  0  0  0  0  0999 V2000
    5.9576   12.7721   24.2259 N   0  0  0  0  0  0  0  0  0  0  0  0
    6.1340   11.8360   24.8860 C   0  0  0  0  0  0  0  0  0  0  0  0
    6.4864   10.6154   25.6217 C   0  0  0  0  0  0  0  0  0  0  0  0
    7.6915    9.9852   24.9254 C   0  0  0  0  0  0  0  0  0  0  0  0
    8.8543   10.3845   25.6117 O   0  0  0  0  0  0  0  0  0  0  0  0
    9.5431   11.2146   24.8010 C   0  0  0  0  0  0  0  0  0  0  0  0
   10.3562   10.6796   23.8297 C   0  0  0  0  0  0  0  0  0  0  0  0
   10.9366   11.5733   22.9622 C   0  0  0  0  0  0  0  0  0  0  0  0
   11.8599   11.0285   21.9548 C   0  0  0  0  0  0  0  0  0  0  0  0
   11.8450    9.8337   21.6781 O   0  0  0  0  0  0  0  0  0  0  0  0
   12.7756   12.0619   21.3848 C   0  0  0  0  0  0  0  0  0  0  0  0
   13.9891   11.4278   20.3232 Cl  0  0  0  0  0  0  0  0  0  0  0  0
   10.6851   12.9603   23.0717 C   0  0  0  0  0  0  0  0  0  0  0  0
    9.8869   13.4680   24.0843 C   0  0  0  0  0  0  0  0  0  0  0  0
    9.3295   12.5775   24.9593 C   0  0  0  0  0  0  0  0  0  0  0  0
    8.5293   13.0299   25.9625 O   0  0  0  0  0  0  0  0  0  0  0  0
  1  2  3  0
  2  3  1  0
  3  4  1  0
  4  5  1  0
  5  6  1  0
  6  7  2  0
  7  8  1  0
  8  9  1  0
  9 10  2  0
  9 11  1  0
 11 12  1  0
  8 13  2  0
 13 14  1  0
 14 15  2  0
 15 16  1  0
 15  6  1  0
M  END
>  <distance_score>  (248) 
1.360031

>  <ref_pdb>  (248) 
A1775a

>  <ref_mols>  (248) 
A1775a

>  <alias>  (248) 
None

>  <original SMILES>  (248) 
N#CCCOc1cc(C(=O)CCl)ccc1O

>  <inchikey>  (248) 
PNJINMPTESXHGT-UHFFFAOYSA-N

>  <exports>  (248) 
['/opt/xchem-fragalysis-2/maxwin/2A_HIPPO/hippo/A71EV2A_10_recipes/Recipe_1LPVPY0_poses.sdf']

>  <original ID>  (248) 
PNJINMPTESXHGT-UHFFFAOYSA-N

>  <energy_score>  (248) 
-166.757718

>  <tags>  (248) 
[]

>  <HIPPO ID>  (248) 
127581

>  <name>  (248) 
PNJINMPTESXHGT-UHFFFAOYSA-N

$$$$
GGYYFUMECIOESL-UHFFFAOYSA-N
     RDKit          3D

 16 16  0  0  0  0  0  0  0  0999 V2000
    3.9297   13.9173   26.9298 N   0  0  0  0  0  0  0  0  0  0  0  0
    4.6527   13.0223   26.8052 C   0  0  0  0  0  0  0  0  0  0  0  0
    5.5655   11.8928   26.6814 C   0  0  0  0  0  0  0  0  0  0  0  0
    6.8108   12.2849   25.9053 C   0  0  0  0  0  0  0  0  0  0  0  0
    7.5795   11.1032   25.7247 O   0  0  0  0  0  0  0  0  0  0  0  0
    8.6367   11.1973   24.8669 C   0  0  0  0  0  0  0  0  0  0  0  0
    9.3972   12.3249   24.5968 C   0  0  0  0  0  0  0  0  0  0  0  0
   10.4534   12.2343   23.6813 C   0  0  0  0  0  0  0  0  0  0  0  0
   10.7520   11.0101   23.0616 C   0  0  0  0  0  0  0  0  0  0  0  0
   11.7965   10.8428   22.0315 C   0  0  0  0  0  0  0  0  0  0  0  0
   11.9500    9.7231   21.5443 O   0  0  0  0  0  0  0  0  0  0  0  0
   12.5773   12.0655   21.6161 C   0  0  0  0  0  0  0  0  0  0  0  0
   13.8039   11.6090   20.4153 Cl  0  0  0  0  0  0  0  0  0  0  0  0
   10.0131    9.8779   23.3666 C   0  0  0  0  0  0  0  0  0  0  0  0
    8.9678    9.9984   24.2460 C   0  0  0  0  0  0  0  0  0  0  0  0
    8.2171    8.8946   24.4564 O   0  0  0  0  0  0  0  0  0  0  0  0
  1  2  3  0
  2  3  1  0
  3  4  1  0
  4  5  1  0
  5  6  1  0
  6  7  2  0
  7  8  1  0
  8  9  2  0
  9 10  1  0
 10 11  2  0
 10 12  1  0
 12 13  1  0
  9 14  1  0
 14 15  2  0
 15 16  1  0
 15  6  1  0
M  END
>  <distance_score>  (249) 
0.411183

>  <ref_pdb>  (249) 
A1775a

>  <ref_mols>  (249) 
A1775a

>  <alias>  (249) 
None

>  <original SMILES>  (249) 
N#CCCOc1ccc(C(=O)CCl)cc1O

>  <inchikey>  (249) 
GGYYFUMECIOESL-UHFFFAOYSA-N

>  <exports>  (249) 
['/opt/xchem-fragalysis-2/maxwin/2A_HIPPO/hippo/A71EV2A_10_recipes/Recipe_1LPVPY0_poses.sdf']

>  <original ID>  (249) 
GGYYFUMECIOESL-UHFFFAOYSA-N

>  <energy_score>  (249) 
-64.893964

>  <tags>  (249) 
[]

>  <HIPPO ID>  (249) 
127587

>  <name>  (249) 
GGYYFUMECIOESL-UHFFFAOYSA-N

$$$$
DQVMDTNTBZRTTH-UHFFFAOYSA-N
     RDKit          3D

 16 16  0  0  0  0  0  0  0  0999 V2000
    6.1030   10.0864   29.8256 C   0  0  0  0  0  0  0  0  0  0  0  0
    6.3346   11.0243   28.7814 O   0  0  0  0  0  0  0  0  0  0  0  0
    5.4003   10.8394   27.7178 C   0  0  0  0  0  0  0  0  0  0  0  0
    5.4775   12.0202   26.7618 C   0  0  0  0  0  0  0  0  0  0  0  0
    6.8603   12.2320   26.1624 C   0  0  0  0  0  0  0  0  0  0  0  0
    7.3325   11.0134   25.6054 O   0  0  0  0  0  0  0  0  0  0  0  0
    8.4751   11.0676   24.8640 C   0  0  0  0  0  0  0  0  0  0  0  0
    9.2632   12.1910   24.6327 C   0  0  0  0  0  0  0  0  0  0  0  0
   10.3519   12.1138   23.7595 C   0  0  0  0  0  0  0  0  0  0  0  0
   10.6641   10.9016   23.1361 C   0  0  0  0  0  0  0  0  0  0  0  0
   11.7195   10.7750   22.1052 C   0  0  0  0  0  0  0  0  0  0  0  0
   11.8901    9.6657   21.5995 O   0  0  0  0  0  0  0  0  0  0  0  0
   12.4836   12.0234   21.7033 C   0  0  0  0  0  0  0  0  0  0  0  0
   13.7118   11.6040   20.4818 Cl  0  0  0  0  0  0  0  0  0  0  0  0
    9.9194    9.7606   23.4310 C   0  0  0  0  0  0  0  0  0  0  0  0
    8.8297    9.8545   24.2819 C   0  0  0  0  0  0  0  0  0  0  0  0
  1  2  1  0
  2  3  1  0
  3  4  1  0
  4  5  1  0
  5  6  1  0
  6  7  1  0
  7  8  2  0
  8  9  1  0
  9 10  2  0
 10 11  1  0
 11 12  2  0
 11 13  1  0
 13 14  1  0
 10 15  1  0
 15 16  2  0
 16  7  1  0
M  END
>  <distance_score>  (250) 
0.377057

>  <ref_pdb>  (250) 
A1775a

>  <ref_mols>  (250) 
A1775a

>  <alias>  (250) 
None

>  <original SMILES>  (250) 
COCCCOc1ccc(C(=O)CCl)cc1

>  <inchikey>  (250) 
DQVMDTNTBZRTTH-UHFFFAOYSA-N

>  <exports>  (250) 
['/opt/xchem-fragalysis-2/maxwin/2A_HIPPO/hippo/A71EV2A_10_recipes/Recipe_1LPVPY0_poses.sdf']

>  <original ID>  (250) 
DQVMDTNTBZRTTH-UHFFFAOYSA-N

>  <energy_score>  (250) 
-12.90665

>  <tags>  (250) 
[]

>  <HIPPO ID>  (250) 
127617

>  <name>  (250) 
DQVMDTNTBZRTTH-UHFFFAOYSA-N

$$$$
ZQOYIXUFAUTJCJ-UHFFFAOYSA-N
     RDKit          3D

 16 16  0  0  0  0  0  0  0  0999 V2000
    4.3852   13.9214   28.1408 C   0  0  0  0  0  0  0  0  0  0  0  0
    4.9566   13.0079   27.6125 C   0  0  0  0  0  0  0  0  0  0  0  0
    5.5892   11.8458   26.9856 C   0  0  0  0  0  0  0  0  0  0  0  0
    6.8369   12.2145   26.1952 C   0  0  0  0  0  0  0  0  0  0  0  0
    7.3932   10.9936   25.7248 O   0  0  0  0  0  0  0  0  0  0  0  0
    8.4781   11.0544   24.9085 C   0  0  0  0  0  0  0  0  0  0  0  0
    9.2866   12.1550   24.6678 C   0  0  0  0  0  0  0  0  0  0  0  0
   10.3604   12.0436   23.7749 C   0  0  0  0  0  0  0  0  0  0  0  0
   10.6252   10.8334   23.1094 C   0  0  0  0  0  0  0  0  0  0  0  0
   11.7048   10.7381   22.0867 C   0  0  0  0  0  0  0  0  0  0  0  0
   11.9211    9.6575   21.5426 O   0  0  0  0  0  0  0  0  0  0  0  0
   12.4616   12.0054   21.7170 C   0  0  0  0  0  0  0  0  0  0  0  0
   13.6994   11.6201   20.4886 Cl  0  0  0  0  0  0  0  0  0  0  0  0
    9.8029    9.7357   23.3731 C   0  0  0  0  0  0  0  0  0  0  0  0
    9.9353    8.5325   22.7457 O   0  0  0  0  0  0  0  0  0  0  0  0
    8.7627    9.8487   24.2799 C   0  0  0  0  0  0  0  0  0  0  0  0
  1  2  3  0
  2  3  1  0
  3  4  1  0
  4  5  1  0
  5  6  1  0
  6  7  2  0
  7  8  1  0
  8  9  2  0
  9 10  1  0
 10 11  2  0
 10 12  1  0
 12 13  1  0
  9 14  1  0
 14 15  1  0
 14 16  2  0
 16  6  1  0
M  END
>  <distance_score>  (251) 
0.386792

>  <ref_pdb>  (251) 
A1775a

>  <ref_mols>  (251) 
A1775a

>  <alias>  (251) 
None

>  <original SMILES>  (251) 
C#CCCOc1ccc(C(=O)CCl)c(O)c1

>  <inchikey>  (251) 
ZQOYIXUFAUTJCJ-UHFFFAOYSA-N

>  <exports>  (251) 
['/opt/xchem-fragalysis-2/maxwin/2A_HIPPO/hippo/A71EV2A_10_recipes/Recipe_1LPVPY0_poses.sdf']

>  <original ID>  (251) 
ZQOYIXUFAUTJCJ-UHFFFAOYSA-N

>  <energy_score>  (251) 
-43.700495

>  <tags>  (251) 
[]

>  <HIPPO ID>  (251) 
127645

>  <name>  (251) 
ZQOYIXUFAUTJCJ-UHFFFAOYSA-N

$$$$
DLKDALOAAHCCIY-UHFFFAOYSA-N
     RDKit          3D

 16 16  0  0  0  0  0  0  0  0999 V2000
    5.7752   10.5846   29.0966 C   0  0  0  0  0  0  0  0  0  0  0  0
    5.6525   11.2116   28.0802 C   0  0  0  0  0  0  0  0  0  0  0  0
    5.4735   11.9625   26.8276 C   0  0  0  0  0  0  0  0  0  0  0  0
    6.8049   12.2786   26.1556 C   0  0  0  0  0  0  0  0  0  0  0  0
    7.3874   11.0721   25.6770 O   0  0  0  0  0  0  0  0  0  0  0  0
    8.4974   11.1577   24.8887 C   0  0  0  0  0  0  0  0  0  0  0  0
    8.8404    9.9302   24.3194 C   0  0  0  0  0  0  0  0  0  0  0  0
    9.9154    9.8089   23.4520 C   0  0  0  0  0  0  0  0  0  0  0  0
   10.6634   10.9371   23.1237 C   0  0  0  0  0  0  0  0  0  0  0  0
   11.7201   10.7838   22.0963 C   0  0  0  0  0  0  0  0  0  0  0  0
   11.8806    9.6669   21.6058 O   0  0  0  0  0  0  0  0  0  0  0  0
   12.4998   12.0202   21.6843 C   0  0  0  0  0  0  0  0  0  0  0  0
   13.7272   11.5904   20.4713 Cl  0  0  0  0  0  0  0  0  0  0  0  0
   10.3615   12.1683   23.7150 C   0  0  0  0  0  0  0  0  0  0  0  0
    9.2864   12.2735   24.6016 C   0  0  0  0  0  0  0  0  0  0  0  0
    9.0353   13.4951   25.1641 O   0  0  0  0  0  0  0  0  0  0  0  0
  1  2  3  0
  2  3  1  0
  3  4  1  0
  4  5  1  0
  5  6  1  0
  6  7  2  0
  7  8  1  0
  8  9  2  0
  9 10  1  0
 10 11  2  0
 10 12  1  0
 12 13  1  0
  9 14  1  0
 14 15  2  0
 15 16  1  0
 15  6  1  0
M  END
>  <distance_score>  (252) 
0.400079

>  <ref_pdb>  (252) 
A1775a

>  <ref_mols>  (252) 
A1775a

>  <alias>  (252) 
None

>  <original SMILES>  (252) 
C#CCCOc1ccc(C(=O)CCl)cc1O

>  <inchikey>  (252) 
DLKDALOAAHCCIY-UHFFFAOYSA-N

>  <exports>  (252) 
['/opt/xchem-fragalysis-2/maxwin/2A_HIPPO/hippo/A71EV2A_10_recipes/Recipe_1LPVPY0_poses.sdf']

>  <original ID>  (252) 
DLKDALOAAHCCIY-UHFFFAOYSA-N

>  <energy_score>  (252) 
-97.957604

>  <tags>  (252) 
[]

>  <HIPPO ID>  (252) 
127646

>  <name>  (252) 
DLKDALOAAHCCIY-UHFFFAOYSA-N

$$$$
YGHCAIWZUJONMX-UHFFFAOYSA-N
     RDKit          3D

 16 16  0  0  0  0  0  0  0  0999 V2000
    8.9762   14.3407   28.5863 C   0  0  0  0  0  0  0  0  0  0  0  0
    9.6586   14.7226   27.6706 C   0  0  0  0  0  0  0  0  0  0  0  0
   10.4321   15.1979   26.5138 C   0  0  0  0  0  0  0  0  0  0  0  0
   10.5177   14.1819   25.3919 C   0  0  0  0  0  0  0  0  0  0  0  0
    9.2517   13.5248   25.1627 O   0  0  0  0  0  0  0  0  0  0  0  0
    9.4332   12.3268   24.5156 C   0  0  0  0  0  0  0  0  0  0  0  0
   10.4011   12.1642   23.5328 C   0  0  0  0  0  0  0  0  0  0  0  0
   10.6691   10.9027   23.0097 C   0  0  0  0  0  0  0  0  0  0  0  0
   11.7432   10.7262   22.0071 C   0  0  0  0  0  0  0  0  0  0  0  0
   11.9025    9.6017   21.5390 O   0  0  0  0  0  0  0  0  0  0  0  0
   12.5478   11.9597   21.6088 C   0  0  0  0  0  0  0  0  0  0  0  0
   13.7995   11.5467   20.4299 Cl  0  0  0  0  0  0  0  0  0  0  0  0
    9.9066    9.8058   23.4163 C   0  0  0  0  0  0  0  0  0  0  0  0
    8.8681    9.9893   24.3253 C   0  0  0  0  0  0  0  0  0  0  0  0
    8.6357   11.2446   24.8712 C   0  0  0  0  0  0  0  0  0  0  0  0
    7.6238   11.3790   25.7751 O   0  0  0  0  0  0  0  0  0  0  0  0
  1  2  3  0
  2  3  1  0
  3  4  1  0
  4  5  1  0
  5  6  1  0
  6  7  2  0
  7  8  1  0
  8  9  1  0
  9 10  2  0
  9 11  1  0
 11 12  1  0
  8 13  2  0
 13 14  1  0
 14 15  2  0
 15 16  1  0
 15  6  1  0
M  END
>  <distance_score>  (253) 
0.442693

>  <ref_pdb>  (253) 
A1775a

>  <ref_mols>  (253) 
A1775a

>  <alias>  (253) 
None

>  <original SMILES>  (253) 
C#CCCOc1cc(C(=O)CCl)ccc1O

>  <inchikey>  (253) 
YGHCAIWZUJONMX-UHFFFAOYSA-N

>  <exports>  (253) 
['/opt/xchem-fragalysis-2/maxwin/2A_HIPPO/hippo/A71EV2A_10_recipes/Recipe_1LPVPY0_poses.sdf']

>  <original ID>  (253) 
YGHCAIWZUJONMX-UHFFFAOYSA-N

>  <energy_score>  (253) 
-11.250022

>  <tags>  (253) 
[]

>  <HIPPO ID>  (253) 
127647

>  <name>  (253) 
YGHCAIWZUJONMX-UHFFFAOYSA-N

$$$$
HJCABBKZMWNQHA-UHFFFAOYSA-N
     RDKit          3D

 16 16  0  0  0  0  0  0  0  0999 V2000
    3.9171   10.6613   28.1126 C   0  0  0  0  0  0  0  0  0  0  0  0
    5.1934   10.6933   27.2916 C   0  0  0  0  0  0  0  0  0  0  0  0
    5.4462   12.0782   26.7027 C   0  0  0  0  0  0  0  0  0  0  0  0
    6.8605   12.2571   26.1582 C   0  0  0  0  0  0  0  0  0  0  0  0
    7.3274   11.0336   25.6131 O   0  0  0  0  0  0  0  0  0  0  0  0
    8.4684   11.0622   24.8734 C   0  0  0  0  0  0  0  0  0  0  0  0
    9.3095   12.1467   24.6695 C   0  0  0  0  0  0  0  0  0  0  0  0
   10.3969   12.0258   23.7966 C   0  0  0  0  0  0  0  0  0  0  0  0
   10.6468   10.8203   23.1185 C   0  0  0  0  0  0  0  0  0  0  0  0
   11.7180   10.7295   22.0873 C   0  0  0  0  0  0  0  0  0  0  0  0
   11.9295    9.6520   21.5351 O   0  0  0  0  0  0  0  0  0  0  0  0
   12.4683   12.0002   21.7147 C   0  0  0  0  0  0  0  0  0  0  0  0
   13.7037   11.6201   20.4825 Cl  0  0  0  0  0  0  0  0  0  0  0  0
    9.8119    9.7289   23.3693 C   0  0  0  0  0  0  0  0  0  0  0  0
    9.9400    8.5278   22.7366 O   0  0  0  0  0  0  0  0  0  0  0  0
    8.7567    9.8513   24.2574 C   0  0  0  0  0  0  0  0  0  0  0  0
  1  2  1  0
  2  3  1  0
  3  4  1  0
  4  5  1  0
  5  6  1  0
  6  7  2  0
  7  8  1  0
  8  9  2  0
  9 10  1  0
 10 11  2  0
 10 12  1  0
 12 13  1  0
  9 14  1  0
 14 15  1  0
 14 16  2  0
 16  6  1  0
M  END
>  <distance_score>  (254) 
0.359202

>  <ref_pdb>  (254) 
A1775a

>  <ref_mols>  (254) 
A1775a

>  <alias>  (254) 
None

>  <original SMILES>  (254) 
CCCCOc1ccc(C(=O)CCl)c(O)c1

>  <inchikey>  (254) 
HJCABBKZMWNQHA-UHFFFAOYSA-N

>  <exports>  (254) 
['/opt/xchem-fragalysis-2/maxwin/2A_HIPPO/hippo/A71EV2A_10_recipes/Recipe_1LPVPY0_poses.sdf']

>  <original ID>  (254) 
HJCABBKZMWNQHA-UHFFFAOYSA-N

>  <energy_score>  (254) 
-13.656679

>  <tags>  (254) 
[]

>  <HIPPO ID>  (254) 
127650

>  <name>  (254) 
HJCABBKZMWNQHA-UHFFFAOYSA-N

$$$$
HZRGCYJCWMOIPG-UHFFFAOYSA-N
     RDKit          3D

 16 16  0  0  0  0  0  0  0  0999 V2000
    9.2142    6.1315   19.1706 C   0  0  0  0  0  0  0  0  0  0  0  0
    8.6562    7.0275   20.3283 C   0  0  0  0  0  0  0  0  0  0  0  0
    9.2940    7.5432   21.7153 C   0  0  0  0  0  0  0  0  0  0  0  0
   10.0341    8.8034   21.9022 C   0  0  0  0  0  0  0  0  0  0  0  0
   10.4779    8.8514   23.2624 O   0  0  0  0  0  0  0  0  0  0  0  0
   10.1889   10.1111   23.7217 C   0  0  0  0  0  0  0  0  0  0  0  0
    9.0752   10.2252   24.5462 C   0  0  0  0  0  0  0  0  0  0  0  0
    8.6953   11.4686   25.0107 C   0  0  0  0  0  0  0  0  0  0  0  0
    7.5910   11.5248   25.8039 O   0  0  0  0  0  0  0  0  0  0  0  0
    9.4270   12.5989   24.6660 C   0  0  0  0  0  0  0  0  0  0  0  0
   10.5075   12.4925   23.7810 C   0  0  0  0  0  0  0  0  0  0  0  0
   10.8801   11.2435   23.2763 C   0  0  0  0  0  0  0  0  0  0  0  0
   11.9245   11.0852   22.2243 C   0  0  0  0  0  0  0  0  0  0  0  0
   12.2843    9.9734   21.8481 O   0  0  0  0  0  0  0  0  0  0  0  0
   12.5906   12.2896   21.6626 C   0  0  0  0  0  0  0  0  0  0  0  0
   13.7346   11.7342   20.3797 Cl  0  0  0  0  0  0  0  0  0  0  0  0
  1  2  1  0
  2  3  1  0
  3  4  1  0
  4  5  1  0
  5  6  1  0
  6  7  2  0
  7  8  1  0
  8  9  1  0
  8 10  2  0
 10 11  1  0
 11 12  2  0
 12 13  1  0
 13 14  2  0
 13 15  1  0
 15 16  1  0
 12  6  1  0
M  END
>  <distance_score>  (255) 
0.657251

>  <ref_pdb>  (255) 
A1775a

>  <ref_mols>  (255) 
A1775a

>  <alias>  (255) 
None

>  <original SMILES>  (255) 
CCCCOc1cc(O)ccc1C(=O)CCl

>  <inchikey>  (255) 
HZRGCYJCWMOIPG-UHFFFAOYSA-N

>  <exports>  (255) 
['/opt/xchem-fragalysis-2/maxwin/2A_HIPPO/hippo/A71EV2A_10_recipes/Recipe_1LPVPY0_poses.sdf']

>  <original ID>  (255) 
HZRGCYJCWMOIPG-UHFFFAOYSA-N

>  <energy_score>  (255) 
38.684106

>  <tags>  (255) 
[]

>  <HIPPO ID>  (255) 
127651

>  <name>  (255) 
HZRGCYJCWMOIPG-UHFFFAOYSA-N

$$$$
SPYKRVKGBXXRNQ-UHFFFAOYSA-N
     RDKit          3D

 16 16  0  0  0  0  0  0  0  0999 V2000
    4.2054   13.8968   26.5267 C   0  0  0  0  0  0  0  0  0  0  0  0
    4.9107   13.0500   27.5716 C   0  0  0  0  0  0  0  0  0  0  0  0
    5.6875   11.8857   26.9681 C   0  0  0  0  0  0  0  0  0  0  0  0
    6.8867   12.3040   26.1233 C   0  0  0  0  0  0  0  0  0  0  0  0
    7.5243   11.1062   25.7043 O   0  0  0  0  0  0  0  0  0  0  0  0
    8.5985   11.2140   24.8713 C   0  0  0  0  0  0  0  0  0  0  0  0
    9.3559   12.3413   24.5955 C   0  0  0  0  0  0  0  0  0  0  0  0
   10.4208   12.2478   23.6873 C   0  0  0  0  0  0  0  0  0  0  0  0
   10.7309   11.0208   23.0779 C   0  0  0  0  0  0  0  0  0  0  0  0
   11.7786   10.8501   22.0503 C   0  0  0  0  0  0  0  0  0  0  0  0
   11.9340    9.7290   21.5659 O   0  0  0  0  0  0  0  0  0  0  0  0
   12.5614   12.0713   21.6323 C   0  0  0  0  0  0  0  0  0  0  0  0
   13.7865   11.6097   20.4290 Cl  0  0  0  0  0  0  0  0  0  0  0  0
    9.9961    9.8881   23.3885 C   0  0  0  0  0  0  0  0  0  0  0  0
    8.9432   10.0131   24.2591 C   0  0  0  0  0  0  0  0  0  0  0  0
    8.1959    8.9072   24.4763 O   0  0  0  0  0  0  0  0  0  0  0  0
  1  2  1  0
  2  3  1  0
  3  4  1  0
  4  5  1  0
  5  6  1  0
  6  7  2  0
  7  8  1  0
  8  9  2  0
  9 10  1  0
 10 11  2  0
 10 12  1  0
 12 13  1  0
  9 14  1  0
 14 15  2  0
 15 16  1  0
 15  6  1  0
M  END
>  <distance_score>  (256) 
0.428643

>  <ref_pdb>  (256) 
A1775a

>  <ref_mols>  (256) 
A1775a

>  <alias>  (256) 
None

>  <original SMILES>  (256) 
CCCCOc1ccc(C(=O)CCl)cc1O

>  <inchikey>  (256) 
SPYKRVKGBXXRNQ-UHFFFAOYSA-N

>  <exports>  (256) 
['/opt/xchem-fragalysis-2/maxwin/2A_HIPPO/hippo/A71EV2A_10_recipes/Recipe_1LPVPY0_poses.sdf']

>  <original ID>  (256) 
SPYKRVKGBXXRNQ-UHFFFAOYSA-N

>  <energy_score>  (256) 
-28.747692

>  <tags>  (256) 
[]

>  <HIPPO ID>  (256) 
127652

>  <name>  (256) 
SPYKRVKGBXXRNQ-UHFFFAOYSA-N

$$$$
AUTCOUFYCRCTON-UHFFFAOYSA-N
     RDKit          3D

 16 16  0  0  0  0  0  0  0  0999 V2000
   12.4490   15.5167   25.6368 C   0  0  0  0  0  0  0  0  0  0  0  0
   11.8013   15.1545   24.3055 C   0  0  0  0  0  0  0  0  0  0  0  0
   10.2981   14.9344   24.4072 C   0  0  0  0  0  0  0  0  0  0  0  0
    9.9790   13.8879   25.4523 C   0  0  0  0  0  0  0  0  0  0  0  0
    8.8245   13.1332   25.0763 O   0  0  0  0  0  0  0  0  0  0  0  0
    9.1934   11.9732   24.4418 C   0  0  0  0  0  0  0  0  0  0  0  0
   10.2373   11.9025   23.5230 C   0  0  0  0  0  0  0  0  0  0  0  0
   10.6378   10.6869   22.9879 C   0  0  0  0  0  0  0  0  0  0  0  0
   11.7379   10.6274   22.0010 C   0  0  0  0  0  0  0  0  0  0  0  0
   11.9554    9.5340   21.4855 O   0  0  0  0  0  0  0  0  0  0  0  0
   12.4912   11.9127   21.6580 C   0  0  0  0  0  0  0  0  0  0  0  0
   13.7605   11.5731   20.4640 Cl  0  0  0  0  0  0  0  0  0  0  0  0
    9.9538    9.5272   23.3436 C   0  0  0  0  0  0  0  0  0  0  0  0
    8.8603    9.6117   24.2010 C   0  0  0  0  0  0  0  0  0  0  0  0
    8.4794   10.8288   24.7430 C   0  0  0  0  0  0  0  0  0  0  0  0
    7.3962   10.8826   25.5690 O   0  0  0  0  0  0  0  0  0  0  0  0
  1  2  1  0
  2  3  1  0
  3  4  1  0
  4  5  1  0
  5  6  1  0
  6  7  2  0
  7  8  1  0
  8  9  1  0
  9 10  2  0
  9 11  1  0
 11 12  1  0
  8 13  2  0
 13 14  1  0
 14 15  2  0
 15 16  1  0
 15  6  1  0
M  END
>  <distance_score>  (257) 
0.383685

>  <ref_pdb>  (257) 
A1775a

>  <ref_mols>  (257) 
A1775a

>  <alias>  (257) 
None

>  <original SMILES>  (257) 
CCCCOc1cc(C(=O)CCl)ccc1O

>  <inchikey>  (257) 
AUTCOUFYCRCTON-UHFFFAOYSA-N

>  <exports>  (257) 
['/opt/xchem-fragalysis-2/maxwin/2A_HIPPO/hippo/A71EV2A_10_recipes/Recipe_1LPVPY0_poses.sdf']

>  <original ID>  (257) 
AUTCOUFYCRCTON-UHFFFAOYSA-N

>  <energy_score>  (257) 
-11.219991

>  <tags>  (257) 
[]

>  <HIPPO ID>  (257) 
127653

>  <name>  (257) 
AUTCOUFYCRCTON-UHFFFAOYSA-N

$$$$
VMYJANCFVPSGRQ-UHFFFAOYSA-N
     RDKit          3D

 16 16  0  0  0  0  0  0  0  0999 V2000
    7.7438   12.6744   26.9584 C   0  0  0  0  0  0  0  0  0  0  0  0
    6.8841   11.9709   26.2137 C   0  0  0  0  0  0  0  0  0  0  0  0
    5.4693   11.7605   26.6778 C   0  0  0  0  0  0  0  0  0  0  0  0
    4.2950   13.3776   25.9523 I   0  0  0  0  0  0  0  0  0  0  0  0
    7.1685   11.3530   25.0132 O   0  0  0  0  0  0  0  0  0  0  0  0
    8.4419   11.2912   24.5059 C   0  0  0  0  0  0  0  0  0  0  0  0
    9.1323   12.4297   24.1042 C   0  0  0  0  0  0  0  0  0  0  0  0
   10.3084   12.3091   23.3689 C   0  0  0  0  0  0  0  0  0  0  0  0
   10.7701   11.0396   23.0063 C   0  0  0  0  0  0  0  0  0  0  0  0
   11.8369   10.8407   22.0091 C   0  0  0  0  0  0  0  0  0  0  0  0
   11.9821    9.7089   21.5488 O   0  0  0  0  0  0  0  0  0  0  0  0
   12.6243   12.0540   21.5803 C   0  0  0  0  0  0  0  0  0  0  0  0
   13.8558   11.5881   20.3981 Cl  0  0  0  0  0  0  0  0  0  0  0  0
   10.1125    9.8970   23.4426 C   0  0  0  0  0  0  0  0  0  0  0  0
    8.9384   10.0404   24.1497 C   0  0  0  0  0  0  0  0  0  0  0  0
    8.1976    8.9256   24.3623 O   0  0  0  0  0  0  0  0  0  0  0  0
  1  2  2  0
  2  3  1  0
  3  4  1  0
  2  5  1  0
  5  6  1  0
  6  7  2  0
  7  8  1  0
  8  9  2  0
  9 10  1  0
 10 11  2  0
 10 12  1  0
 12 13  1  0
  9 14  1  0
 14 15  2  0
 15 16  1  0
 15  6  1  0
M  END
>  <distance_score>  (258) 
0.5425

>  <ref_pdb>  (258) 
A1775a

>  <ref_mols>  (258) 
A1775a

>  <alias>  (258) 
None

>  <original SMILES>  (258) 
C=C(CI)Oc1ccc(C(=O)CCl)cc1O

>  <inchikey>  (258) 
VMYJANCFVPSGRQ-UHFFFAOYSA-N

>  <exports>  (258) 
['/opt/xchem-fragalysis-2/maxwin/2A_HIPPO/hippo/A71EV2A_10_recipes/Recipe_1LPVPY0_poses.sdf']

>  <original ID>  (258) 
VMYJANCFVPSGRQ-UHFFFAOYSA-N

>  <energy_score>  (258) 
-83.254184

>  <tags>  (258) 
[]

>  <HIPPO ID>  (258) 
127740

>  <name>  (258) 
VMYJANCFVPSGRQ-UHFFFAOYSA-N

$$$$
GSRNVMUFKXMOKX-UHFFFAOYSA-N
     RDKit          3D

 16 16  0  0  0  0  0  0  0  0999 V2000
    6.3341   12.8813   24.7960 C   0  0  0  0  0  0  0  0  0  0  0  0
    6.5055   11.9849   25.7807 C   0  0  0  0  0  0  0  0  0  0  0  0
    5.3872   11.6850   26.7504 C   0  0  0  0  0  0  0  0  0  0  0  0
    5.9811   11.9360   28.7687 I   0  0  0  0  0  0  0  0  0  0  0  0
    7.6154   11.1727   25.9475 O   0  0  0  0  0  0  0  0  0  0  0  0
    8.6019   11.1291   25.0018 C   0  0  0  0  0  0  0  0  0  0  0  0
    9.4815   12.1844   24.8017 C   0  0  0  0  0  0  0  0  0  0  0  0
   10.5024   12.0551   23.8605 C   0  0  0  0  0  0  0  0  0  0  0  0
   10.6606   10.8614   23.1330 C   0  0  0  0  0  0  0  0  0  0  0  0
   11.7175   10.7470   22.0875 C   0  0  0  0  0  0  0  0  0  0  0  0
   11.9187    9.6619   21.5468 O   0  0  0  0  0  0  0  0  0  0  0  0
   12.4783   12.0075   21.7006 C   0  0  0  0  0  0  0  0  0  0  0  0
   13.7093   11.6133   20.4705 Cl  0  0  0  0  0  0  0  0  0  0  0  0
    9.7790    9.7995   23.3761 C   0  0  0  0  0  0  0  0  0  0  0  0
    9.8481    8.6190   22.6958 O   0  0  0  0  0  0  0  0  0  0  0  0
    8.7699    9.9327   24.3178 C   0  0  0  0  0  0  0  0  0  0  0  0
  1  2  2  0
  2  3  1  0
  3  4  1  0
  2  5  1  0
  5  6  1  0
  6  7  2  0
  7  8  1  0
  8  9  2  0
  9 10  1  0
 10 11  2  0
 10 12  1  0
 12 13  1  0
  9 14  1  0
 14 15  1  0
 14 16  2  0
 16  6  1  0
M  END
>  <distance_score>  (259) 
0.441443

>  <ref_pdb>  (259) 
A1775a

>  <ref_mols>  (259) 
A1775a

>  <alias>  (259) 
None

>  <original SMILES>  (259) 
C=C(CI)Oc1ccc(C(=O)CCl)c(O)c1

>  <inchikey>  (259) 
GSRNVMUFKXMOKX-UHFFFAOYSA-N

>  <exports>  (259) 
['/opt/xchem-fragalysis-2/maxwin/2A_HIPPO/hippo/A71EV2A_10_recipes/Recipe_1LPVPY0_poses.sdf']

>  <original ID>  (259) 
GSRNVMUFKXMOKX-UHFFFAOYSA-N

>  <energy_score>  (259) 
-32.11794

>  <tags>  (259) 
[]

>  <HIPPO ID>  (259) 
127745

>  <name>  (259) 
GSRNVMUFKXMOKX-UHFFFAOYSA-N

$$$$
HEOVOPBLTWANNA-UHFFFAOYSA-N
     RDKit          3D

 16 16  0  0  0  0  0  0  0  0999 V2000
    5.0097   10.6301   27.0713 C   0  0  0  0  0  0  0  0  0  0  0  0
    5.6242   11.8209   27.0625 C   0  0  0  0  0  0  0  0  0  0  0  0
    5.0461   13.1690   28.2260 Br  0  0  0  0  0  0  0  0  0  0  0  0
    6.8287   12.1736   26.2274 C   0  0  0  0  0  0  0  0  0  0  0  0
    7.3772   10.9883   25.6598 O   0  0  0  0  0  0  0  0  0  0  0  0
    8.4887   11.0855   24.8825 C   0  0  0  0  0  0  0  0  0  0  0  0
    8.8520    9.8863   24.2782 C   0  0  0  0  0  0  0  0  0  0  0  0
    9.9399    9.8176   23.4233 C   0  0  0  0  0  0  0  0  0  0  0  0
   10.6863   10.9656   23.1458 C   0  0  0  0  0  0  0  0  0  0  0  0
   11.7396   10.8220   22.1090 C   0  0  0  0  0  0  0  0  0  0  0  0
   11.8918    9.7032   21.6120 O   0  0  0  0  0  0  0  0  0  0  0  0
   12.5233   12.0462   21.6778 C   0  0  0  0  0  0  0  0  0  0  0  0
   13.7363   11.5889   20.4520 Cl  0  0  0  0  0  0  0  0  0  0  0  0
   10.3534   12.1614   23.7935 C   0  0  0  0  0  0  0  0  0  0  0  0
   11.0934   13.2941   23.6066 O   0  0  0  0  0  0  0  0  0  0  0  0
    9.2569   12.2230   24.6611 C   0  0  0  0  0  0  0  0  0  0  0  0
  1  2  2  0
  2  3  1  0
  2  4  1  0
  4  5  1  0
  5  6  1  0
  6  7  2  0
  7  8  1  0
  8  9  2  0
  9 10  1  0
 10 11  2  0
 10 12  1  0
 12 13  1  0
  9 14  1  0
 14 15  1  0
 14 16  2  0
 16  6  1  0
M  END
>  <distance_score>  (260) 
0.418317

>  <ref_pdb>  (260) 
A1775a

>  <ref_mols>  (260) 
A1775a

>  <alias>  (260) 
None

>  <original SMILES>  (260) 
C=C(Br)COc1ccc(C(=O)CCl)c(O)c1

>  <inchikey>  (260) 
HEOVOPBLTWANNA-UHFFFAOYSA-N

>  <exports>  (260) 
['/opt/xchem-fragalysis-2/maxwin/2A_HIPPO/hippo/A71EV2A_10_recipes/Recipe_1LPVPY0_poses.sdf']

>  <original ID>  (260) 
HEOVOPBLTWANNA-UHFFFAOYSA-N

>  <energy_score>  (260) 
-24.056905

>  <tags>  (260) 
[]

>  <HIPPO ID>  (260) 
127793

>  <name>  (260) 
HEOVOPBLTWANNA-UHFFFAOYSA-N

$$$$
VGNBMMXGRVEUEV-NSCUHMNNSA-N
     RDKit          3D

 16 16  0  0  0  0  0  0  0  0999 V2000
    3.2486   12.8313   27.2461 C   0  0  0  0  0  0  0  0  0  0  0  0
    4.5331   12.9450   26.4937 C   0  0  0  0  0  0  0  0  0  0  0  0
    5.6129   12.1767   26.7132 C   0  0  0  0  0  0  0  0  0  0  0  0
    6.9132   12.3964   26.0094 C   0  0  0  0  0  0  0  0  0  0  0  0
    7.4809   11.1455   25.6572 O   0  0  0  0  0  0  0  0  0  0  0  0
    8.5957   11.2136   24.8623 C   0  0  0  0  0  0  0  0  0  0  0  0
    9.3844   12.3276   24.6032 C   0  0  0  0  0  0  0  0  0  0  0  0
   10.4533   12.2238   23.7044 C   0  0  0  0  0  0  0  0  0  0  0  0
   10.7436   10.9979   23.0877 C   0  0  0  0  0  0  0  0  0  0  0  0
   11.7836   10.8311   22.0518 C   0  0  0  0  0  0  0  0  0  0  0  0
   11.9340    9.7129   21.5602 O   0  0  0  0  0  0  0  0  0  0  0  0
   12.5623   12.0566   21.6326 C   0  0  0  0  0  0  0  0  0  0  0  0
   13.7866   11.6051   20.4263 Cl  0  0  0  0  0  0  0  0  0  0  0  0
    9.9950    9.8725   23.3969 C   0  0  0  0  0  0  0  0  0  0  0  0
    8.9356   10.0074   24.2612 C   0  0  0  0  0  0  0  0  0  0  0  0
    8.1790    8.9094   24.4791 O   0  0  0  0  0  0  0  0  0  0  0  0
  1  2  1  0
  2  3  2  0
  3  4  1  0
  4  5  1  0
  5  6  1  0
  6  7  2  0
  7  8  1  0
  8  9  2  0
  9 10  1  0
 10 11  2  0
 10 12  1  0
 12 13  1  0
  9 14  1  0
 14 15  2  0
 15 16  1  0
 15  6  1  0
M  END
>  <distance_score>  (261) 
0.402012

>  <ref_pdb>  (261) 
A1775a

>  <ref_mols>  (261) 
A1775a

>  <alias>  (261) 
None

>  <original SMILES>  (261) 
C/C=C/COc1ccc(C(=O)CCl)cc1O

>  <inchikey>  (261) 
VGNBMMXGRVEUEV-NSCUHMNNSA-N

>  <exports>  (261) 
['/opt/xchem-fragalysis-2/maxwin/2A_HIPPO/hippo/A71EV2A_10_recipes/Recipe_1LPVPY0_poses.sdf']

>  <original ID>  (261) 
VGNBMMXGRVEUEV-NSCUHMNNSA-N

>  <energy_score>  (261) 
-32.620651

>  <tags>  (261) 
[]

>  <HIPPO ID>  (261) 
128024

>  <name>  (261) 
VGNBMMXGRVEUEV-NSCUHMNNSA-N

$$$$
ABRFRXRWLNUUMJ-NSCUHMNNSA-N
     RDKit          3D

 16 16  0  0  0  0  0  0  0  0999 V2000
    3.8924   10.5293   28.1078 C   0  0  0  0  0  0  0  0  0  0  0  0
    5.1206   10.7467   27.2880 C   0  0  0  0  0  0  0  0  0  0  0  0
    5.5010   11.9395   26.8016 C   0  0  0  0  0  0  0  0  0  0  0  0
    6.7387   12.2127   25.9981 C   0  0  0  0  0  0  0  0  0  0  0  0
    7.4149   10.9998   25.6978 O   0  0  0  0  0  0  0  0  0  0  0  0
    8.5104   11.0820   24.8924 C   0  0  0  0  0  0  0  0  0  0  0  0
    8.8619    9.8825   24.2843 C   0  0  0  0  0  0  0  0  0  0  0  0
    9.9421    9.8141   23.4188 C   0  0  0  0  0  0  0  0  0  0  0  0
   10.6930   10.9603   23.1409 C   0  0  0  0  0  0  0  0  0  0  0  0
   11.7435   10.8170   22.1018 C   0  0  0  0  0  0  0  0  0  0  0  0
   11.8942    9.6992   21.6022 O   0  0  0  0  0  0  0  0  0  0  0  0
   12.5275   12.0419   21.6718 C   0  0  0  0  0  0  0  0  0  0  0  0
   13.7412   11.5873   20.4461 Cl  0  0  0  0  0  0  0  0  0  0  0  0
   10.3738   12.1548   23.7970 C   0  0  0  0  0  0  0  0  0  0  0  0
   11.1191   13.2845   23.6125 O   0  0  0  0  0  0  0  0  0  0  0  0
    9.2852   12.2164   24.6720 C   0  0  0  0  0  0  0  0  0  0  0  0
  1  2  1  0
  2  3  2  0
  3  4  1  0
  4  5  1  0
  5  6  1  0
  6  7  2  0
  7  8  1  0
  8  9  2  0
  9 10  1  0
 10 11  2  0
 10 12  1  0
 12 13  1  0
  9 14  1  0
 14 15  1  0
 14 16  2  0
 16  6  1  0
M  END
>  <distance_score>  (262) 
0.39369

>  <ref_pdb>  (262) 
A1775a

>  <ref_mols>  (262) 
A1775a

>  <alias>  (262) 
None

>  <original SMILES>  (262) 
C/C=C/COc1ccc(C(=O)CCl)c(O)c1

>  <inchikey>  (262) 
ABRFRXRWLNUUMJ-NSCUHMNNSA-N

>  <exports>  (262) 
['/opt/xchem-fragalysis-2/maxwin/2A_HIPPO/hippo/A71EV2A_10_recipes/Recipe_1LPVPY0_poses.sdf']

>  <original ID>  (262) 
ABRFRXRWLNUUMJ-NSCUHMNNSA-N

>  <energy_score>  (262) 
-14.216554

>  <tags>  (262) 
[]

>  <HIPPO ID>  (262) 
128036

>  <name>  (262) 
ABRFRXRWLNUUMJ-NSCUHMNNSA-N

$$$$
NHYKXEAYHCFYBR-UHFFFAOYSA-N
     RDKit          3D

 17 17  0  0  0  0  0  0  0  0999 V2000
    6.1437   10.3848   29.8851 C   0  0  0  0  0  0  0  0  0  0  0  0
    6.2586   10.5754   28.4821 O   0  0  0  0  0  0  0  0  0  0  0  0
    5.5147   11.7142   28.0485 C   0  0  0  0  0  0  0  0  0  0  0  0
    5.3098   11.6547   26.5387 C   0  0  0  0  0  0  0  0  0  0  0  0
    6.5186   12.0906   25.7206 C   0  0  0  0  0  0  0  0  0  0  0  0
    7.6194   11.2295   25.9939 O   0  0  0  0  0  0  0  0  0  0  0  0
    8.5619   11.2075   25.0092 C   0  0  0  0  0  0  0  0  0  0  0  0
    8.8107    9.9888   24.3932 C   0  0  0  0  0  0  0  0  0  0  0  0
    9.8381    9.8709   23.4659 C   0  0  0  0  0  0  0  0  0  0  0  0
   10.6115   10.9890   23.1335 C   0  0  0  0  0  0  0  0  0  0  0  0
   11.6747   10.8132   22.1154 C   0  0  0  0  0  0  0  0  0  0  0  0
   11.8309    9.6885   21.6400 O   0  0  0  0  0  0  0  0  0  0  0  0
   12.4730   12.0382   21.7035 C   0  0  0  0  0  0  0  0  0  0  0  0
   13.6984   11.5883   20.4918 Cl  0  0  0  0  0  0  0  0  0  0  0  0
   10.3597   12.2193   23.7486 C   0  0  0  0  0  0  0  0  0  0  0  0
    9.3546   12.3080   24.7015 C   0  0  0  0  0  0  0  0  0  0  0  0
    9.2160   13.4892   25.3693 O   0  0  0  0  0  0  0  0  0  0  0  0
  1  2  1  0
  2  3  1  0
  3  4  1  0
  4  5  1  0
  5  6  1  0
  6  7  1  0
  7  8  2  0
  8  9  1  0
  9 10  2  0
 10 11  1  0
 11 12  2  0
 11 13  1  0
 13 14  1  0
 10 15  1  0
 15 16  2  0
 16 17  1  0
 16  7  1  0
M  END
>  <distance_score>  (263) 
0.494953

>  <ref_pdb>  (263) 
A1775a

>  <ref_mols>  (263) 
A1775a

>  <alias>  (263) 
None

>  <original SMILES>  (263) 
COCCCOc1ccc(C(=O)CCl)cc1O

>  <inchikey>  (263) 
NHYKXEAYHCFYBR-UHFFFAOYSA-N

>  <exports>  (263) 
['/opt/xchem-fragalysis-2/maxwin/2A_HIPPO/hippo/A71EV2A_10_recipes/Recipe_1LPVPY0_poses.sdf']

>  <original ID>  (263) 
NHYKXEAYHCFYBR-UHFFFAOYSA-N

>  <energy_score>  (263) 
-22.16302

>  <tags>  (263) 
[]

>  <HIPPO ID>  (263) 
128275

>  <name>  (263) 
NHYKXEAYHCFYBR-UHFFFAOYSA-N

$$$$
DDRJLWFQDFBKBL-UHFFFAOYSA-N
     RDKit          3D

 17 17  0  0  0  0  0  0  0  0999 V2000
    9.4217    3.2937   23.7893 C   0  0  0  0  0  0  0  0  0  0  0  0
    9.7438    4.6134   23.9479 O   0  0  0  0  0  0  0  0  0  0  0  0
   10.0942    5.2386   22.7558 C   0  0  0  0  0  0  0  0  0  0  0  0
   10.3893    6.9446   23.1632 C   0  0  0  0  0  0  0  0  0  0  0  0
    9.7047    8.1642   22.6226 C   0  0  0  0  0  0  0  0  0  0  0  0
   10.4325    9.0862   23.4318 O   0  0  0  0  0  0  0  0  0  0  0  0
    9.9120   10.3090   23.5841 C   0  0  0  0  0  0  0  0  0  0  0  0
    8.8503   10.4796   24.4579 C   0  0  0  0  0  0  0  0  0  0  0  0
    8.5494   11.7496   24.8898 C   0  0  0  0  0  0  0  0  0  0  0  0
    7.5302   11.8638   25.7815 O   0  0  0  0  0  0  0  0  0  0  0  0
    9.3103   12.8310   24.4560 C   0  0  0  0  0  0  0  0  0  0  0  0
   10.3418   12.6489   23.5237 C   0  0  0  0  0  0  0  0  0  0  0  0
   10.6506   11.3676   23.0751 C   0  0  0  0  0  0  0  0  0  0  0  0
   11.7306   11.0566   22.0851 C   0  0  0  0  0  0  0  0  0  0  0  0
   11.8827    9.9176   21.6409 O   0  0  0  0  0  0  0  0  0  0  0  0
   12.5804   12.2016   21.6259 C   0  0  0  0  0  0  0  0  0  0  0  0
   13.7853   11.6239   20.4431 Cl  0  0  0  0  0  0  0  0  0  0  0  0
  1  2  1  0
  2  3  1  0
  3  4  1  0
  4  5  1  0
  5  6  1  0
  6  7  1  0
  7  8  2  0
  8  9  1  0
  9 10  1  0
  9 11  2  0
 11 12  1  0
 12 13  2  0
 13 14  1  0
 14 15  2  0
 14 16  1  0
 16 17  1  0
 13  7  1  0
M  END
>  <distance_score>  (264) 
0.77255

>  <ref_pdb>  (264) 
A1775a

>  <ref_mols>  (264) 
A1775a

>  <alias>  (264) 
None

>  <original SMILES>  (264) 
COCCCOc1cc(O)ccc1C(=O)CCl

>  <inchikey>  (264) 
DDRJLWFQDFBKBL-UHFFFAOYSA-N

>  <exports>  (264) 
['/opt/xchem-fragalysis-2/maxwin/2A_HIPPO/hippo/A71EV2A_10_recipes/Recipe_1LPVPY0_poses.sdf']

>  <original ID>  (264) 
DDRJLWFQDFBKBL-UHFFFAOYSA-N

>  <energy_score>  (264) 
37.233959

>  <tags>  (264) 
[]

>  <HIPPO ID>  (264) 
128276

>  <name>  (264) 
DDRJLWFQDFBKBL-UHFFFAOYSA-N

$$$$
YDUSKZOHYJFZNV-UHFFFAOYSA-N
     RDKit          3D

 17 17  0  0  0  0  0  0  0  0999 V2000
    3.4526   10.7639   28.0437 C   0  0  0  0  0  0  0  0  0  0  0  0
    3.5572   11.9127   27.2123 O   0  0  0  0  0  0  0  0  0  0  0  0
    4.7464   11.9282   26.4283 C   0  0  0  0  0  0  0  0  0  0  0  0
    5.9596   12.2871   27.2594 C   0  0  0  0  0  0  0  0  0  0  0  0
    7.1746   12.4203   26.3636 C   0  0  0  0  0  0  0  0  0  0  0  0
    7.5282   11.1478   25.8359 O   0  0  0  0  0  0  0  0  0  0  0  0
    8.5792   11.1412   24.9638 C   0  0  0  0  0  0  0  0  0  0  0  0
    9.4304   12.2075   24.6985 C   0  0  0  0  0  0  0  0  0  0  0  0
   10.4671   12.0589   23.7771 C   0  0  0  0  0  0  0  0  0  0  0  0
   10.6607   10.8446   23.1014 C   0  0  0  0  0  0  0  0  0  0  0  0
   11.7248   10.7269   22.0657 C   0  0  0  0  0  0  0  0  0  0  0  0
   11.9256    9.6407   21.5280 O   0  0  0  0  0  0  0  0  0  0  0  0
   12.4899   11.9885   21.6840 C   0  0  0  0  0  0  0  0  0  0  0  0
   13.7272   11.6024   20.4616 Cl  0  0  0  0  0  0  0  0  0  0  0  0
    9.7958    9.7801   23.3768 C   0  0  0  0  0  0  0  0  0  0  0  0
    9.8702    8.5807   22.7301 O   0  0  0  0  0  0  0  0  0  0  0  0
    8.7810    9.9300   24.3127 C   0  0  0  0  0  0  0  0  0  0  0  0
  1  2  1  0
  2  3  1  0
  3  4  1  0
  4  5  1  0
  5  6  1  0
  6  7  1  0
  7  8  2  0
  8  9  1  0
  9 10  2  0
 10 11  1  0
 11 12  2  0
 11 13  1  0
 13 14  1  0
 10 15  1  0
 15 16  1  0
 15 17  2  0
 17  7  1  0
M  END
>  <distance_score>  (265) 
0.432987

>  <ref_pdb>  (265) 
A1775a

>  <ref_mols>  (265) 
A1775a

>  <alias>  (265) 
None

>  <original SMILES>  (265) 
COCCCOc1ccc(C(=O)CCl)c(O)c1

>  <inchikey>  (265) 
YDUSKZOHYJFZNV-UHFFFAOYSA-N

>  <exports>  (265) 
['/opt/xchem-fragalysis-2/maxwin/2A_HIPPO/hippo/A71EV2A_10_recipes/Recipe_1LPVPY0_poses.sdf']

>  <original ID>  (265) 
YDUSKZOHYJFZNV-UHFFFAOYSA-N

>  <energy_score>  (265) 
-15.637178

>  <tags>  (265) 
[]

>  <HIPPO ID>  (265) 
128277

>  <name>  (265) 
YDUSKZOHYJFZNV-UHFFFAOYSA-N

$$$$
ATGKUGUCPJUZPT-UHFFFAOYSA-N
     RDKit          3D

 17 17  0  0  0  0  0  0  0  0999 V2000
    3.3373    7.0590   26.0632 C   0  0  0  0  0  0  0  0  0  0  0  0
    3.9730    7.6260   27.1972 O   0  0  0  0  0  0  0  0  0  0  0  0
    4.2599    9.0404   27.1737 C   0  0  0  0  0  0  0  0  0  0  0  0
    5.5453    9.3233   26.4472 C   0  0  0  0  0  0  0  0  0  0  0  0
    6.3084   10.5542   26.0517 C   0  0  0  0  0  0  0  0  0  0  0  0
    7.3965   10.1327   25.1740 O   0  0  0  0  0  0  0  0  0  0  0  0
    8.3969   10.9956   24.8345 C   0  0  0  0  0  0  0  0  0  0  0  0
    9.3926   10.5314   23.9555 C   0  0  0  0  0  0  0  0  0  0  0  0
   10.4799   11.3613   23.6180 C   0  0  0  0  0  0  0  0  0  0  0  0
   11.4011   11.0259   22.4871 C   0  0  0  0  0  0  0  0  0  0  0  0
   11.4195    9.8721   22.0529 O   0  0  0  0  0  0  0  0  0  0  0  0
   12.3099   12.1184   21.9210 C   0  0  0  0  0  0  0  0  0  0  0  0
   11.4955   13.6503   21.5453 Cl  0  0  0  0  0  0  0  0  0  0  0  0
   10.6493   12.5651   24.3041 C   0  0  0  0  0  0  0  0  0  0  0  0
    9.6334   13.0573   25.0995 C   0  0  0  0  0  0  0  0  0  0  0  0
    8.4948   12.2978   25.2978 C   0  0  0  0  0  0  0  0  0  0  0  0
    7.4736   12.9261   25.9325 O   0  0  0  0  0  0  0  0  0  0  0  0
  1  2  1  0
  2  3  1  0
  3  4  1  0
  4  5  1  0
  5  6  1  0
  6  7  1  0
  7  8  2  0
  8  9  1  0
  9 10  1  0
 10 11  2  0
 10 12  1  0
 12 13  1  0
  9 14  2  0
 14 15  1  0
 15 16  2  0
 16 17  1  0
 16  7  1  0
M  END
>  <distance_score>  (266) 
1.562006

>  <ref_pdb>  (266) 
A1775a

>  <ref_mols>  (266) 
A1775a

>  <alias>  (266) 
None

>  <original SMILES>  (266) 
COCCCOc1cc(C(=O)CCl)ccc1O

>  <inchikey>  (266) 
ATGKUGUCPJUZPT-UHFFFAOYSA-N

>  <exports>  (266) 
['/opt/xchem-fragalysis-2/maxwin/2A_HIPPO/hippo/A71EV2A_10_recipes/Recipe_1LPVPY0_poses.sdf']

>  <original ID>  (266) 
ATGKUGUCPJUZPT-UHFFFAOYSA-N

>  <energy_score>  (266) 
-4.773544

>  <tags>  (266) 
[]

>  <HIPPO ID>  (266) 
128344

>  <name>  (266) 
ATGKUGUCPJUZPT-UHFFFAOYSA-N

$$$$
ZVOQRKGJLQHPST-UHFFFAOYSA-N
     RDKit          3D

 21 23  0  0  0  0  0  0  0  0999 V2000
   11.8068    9.3617   21.8248 O   0  0  0  0  0  0  0  0  0  0  0  0
   11.5641   10.4571   22.3164 C   0  0  0  0  0  0  0  0  0  0  0  0
   12.2486   11.7181   21.8727 C   0  0  0  0  0  0  0  0  0  0  0  0
   13.5779   11.5250   20.7683 Cl  0  0  0  0  0  0  0  0  0  0  0  0
   11.6698   12.8967   22.1285 C   0  0  0  0  0  0  0  0  0  0  0  0
   11.9515   14.3731   21.2793 Cl  0  0  0  0  0  0  0  0  0  0  0  0
   10.5312   12.9991   23.0386 C   0  0  0  0  0  0  0  0  0  0  0  0
    9.8780   14.0279   23.1571 O   0  0  0  0  0  0  0  0  0  0  0  0
   10.1114   11.8202   23.7665 C   0  0  0  0  0  0  0  0  0  0  0  0
    9.1330   11.9918   24.7410 C   0  0  0  0  0  0  0  0  0  0  0  0
    8.4037   10.9045   25.1832 C   0  0  0  0  0  0  0  0  0  0  0  0
    7.3314   11.0854   26.0780 N   0  0  0  0  0  0  0  0  0  0  0  0
    7.2369   12.1732   26.9381 C   0  0  0  0  0  0  0  0  0  0  0  0
    8.2308   12.8165   27.3098 O   0  0  0  0  0  0  0  0  0  0  0  0
    5.8754   12.5745   27.4593 C   0  0  0  0  0  0  0  0  0  0  0  0
    5.3869   11.9974   28.7939 C   0  0  0  0  0  0  0  0  0  0  0  0
    3.9991   12.1228   28.2816 N   0  0  0  0  0  0  0  0  0  0  0  0
    4.5542   12.0488   26.9061 C   0  0  0  0  0  0  0  0  0  0  0  0
    8.6799    9.6539   24.6334 C   0  0  0  0  0  0  0  0  0  0  0  0
    9.7581    9.4685   23.7518 C   0  0  0  0  0  0  0  0  0  0  0  0
   10.4919   10.5708   23.3206 C   0  0  0  0  0  0  0  0  0  0  0  0
  1  2  2  0
  2  3  1  0
  3  4  1  0
  3  5  2  0
  5  6  1  0
  5  7  1  0
  7  8  2  0
  7  9  1  0
  9 10  2  0
 10 11  1  0
 11 12  1  0
 12 13  1  0
 13 14  2  0
 13 15  1  0
 15 16  1  0
 16 17  1  0
 17 18  1  0
 11 19  2  0
 19 20  1  0
 20 21  2  0
 21  2  1  0
 21  9  1  0
 18 15  1  0
M  END
>  <distance_score>  (267) 
0.613913

>  <ref_pdb>  (267) 
A1776a

>  <ref_mols>  (267) 
A1776a

>  <alias>  (267) 
None

>  <original SMILES>  (267) 
O=C1C(Cl)=C(Cl)C(=O)c2cc(NC(=O)C3CNC3)ccc21

>  <inchikey>  (267) 
ZVOQRKGJLQHPST-UHFFFAOYSA-N

>  <exports>  (267) 
['/opt/xchem-fragalysis-2/maxwin/2A_HIPPO/hippo/A71EV2A_10_recipes/Recipe_1LPVPY0_poses.sdf']

>  <original ID>  (267) 
ZVOQRKGJLQHPST-UHFFFAOYSA-N

>  <energy_score>  (267) 
-0.92824

>  <tags>  (267) 
[]

>  <HIPPO ID>  (267) 
131836

>  <name>  (267) 
ZVOQRKGJLQHPST-UHFFFAOYSA-N

$$$$
QWQQNSFHSBVESP-SNVBAGLBSA-N
     RDKit          3D

 22 24  0  0  0  0  0  0  0  0999 V2000
   11.9071    9.3807   21.7231 O   0  0  0  0  0  0  0  0  0  0  0  0
   11.6386   10.4593   22.2388 C   0  0  0  0  0  0  0  0  0  0  0  0
   12.2957   11.7398   21.8340 C   0  0  0  0  0  0  0  0  0  0  0  0
   13.6245   11.5751   20.7284 Cl  0  0  0  0  0  0  0  0  0  0  0  0
   11.6894   12.8983   22.1191 C   0  0  0  0  0  0  0  0  0  0  0  0
   11.9433   14.3971   21.2988 Cl  0  0  0  0  0  0  0  0  0  0  0  0
   10.5405   12.9558   23.0275 C   0  0  0  0  0  0  0  0  0  0  0  0
    9.8829   13.9747   23.1890 O   0  0  0  0  0  0  0  0  0  0  0  0
   10.1144   11.7439   23.6959 C   0  0  0  0  0  0  0  0  0  0  0  0
    9.1036   11.8469   24.6510 C   0  0  0  0  0  0  0  0  0  0  0  0
    8.4475   10.7056   25.0599 C   0  0  0  0  0  0  0  0  0  0  0  0
    7.4327   10.7106   26.0203 N   0  0  0  0  0  0  0  0  0  0  0  0
    7.1580   11.7165   26.9340 C   0  0  0  0  0  0  0  0  0  0  0  0
    7.7057   12.8148   26.9907 O   0  0  0  0  0  0  0  0  0  0  0  0
    6.2861   11.2272   28.0763 C   0  0  1  0  0  0  0  0  0  0  0  0
    5.5564   12.3184   28.8347 C   0  0  0  0  0  0  0  0  0  0  0  0
    4.5966   11.5736   29.7485 C   0  0  0  0  0  0  0  0  0  0  0  0
    3.8313   10.5833   28.8819 C   0  0  0  0  0  0  0  0  0  0  0  0
    4.9902   10.0525   27.5962 S   0  0  0  0  0  0  0  0  0  0  0  0
    8.8105    9.4827   24.4950 C   0  0  0  0  0  0  0  0  0  0  0  0
    9.8912    9.3707   23.6216 C   0  0  0  0  0  0  0  0  0  0  0  0
   10.5590   10.5208   23.2284 C   0  0  0  0  0  0  0  0  0  0  0  0
  1  2  2  0
  2  3  1  0
  3  4  1  0
  3  5  2  0
  5  6  1  0
  5  7  1  0
  7  8  2  0
  7  9  1  0
  9 10  2  0
 10 11  1  0
 11 12  1  0
 12 13  1  0
 13 14  2  0
 15 13  1  6
 15 16  1  0
 16 17  1  0
 17 18  1  0
 18 19  1  0
 11 20  2  0
 20 21  1  0
 21 22  2  0
 22  2  1  0
 22  9  1  0
 19 15  1  0
M  END
>  <distance_score>  (268) 
0.654358

>  <ref_pdb>  (268) 
A1776a

>  <ref_mols>  (268) 
A1776a

>  <alias>  (268) 
None

>  <original SMILES>  (268) 
O=C1C(Cl)=C(Cl)C(=O)c2cc(NC(=O)[C@H]3CCCS3)ccc21

>  <inchikey>  (268) 
QWQQNSFHSBVESP-SNVBAGLBSA-N

>  <exports>  (268) 
['/opt/xchem-fragalysis-2/maxwin/2A_HIPPO/hippo/A71EV2A_10_recipes/Recipe_1LPVPY0_poses.sdf']

>  <original ID>  (268) 
QWQQNSFHSBVESP-SNVBAGLBSA-N

>  <energy_score>  (268) 
-28.874641

>  <tags>  (268) 
[]

>  <HIPPO ID>  (268) 
132042

>  <name>  (268) 
QWQQNSFHSBVESP-SNVBAGLBSA-N

$$$$
QWQQNSFHSBVESP-SNVBAGLBSA-N
     RDKit          3D

 22 24  0  0  0  0  0  0  0  0999 V2000
   11.8621    9.3625   21.7608 O   0  0  0  0  0  0  0  0  0  0  0  0
   11.6030   10.4448   22.2727 C   0  0  0  0  0  0  0  0  0  0  0  0
   12.2689   11.7202   21.8569 C   0  0  0  0  0  0  0  0  0  0  0  0
   13.5984   11.5524   20.7502 Cl  0  0  0  0  0  0  0  0  0  0  0  0
   11.6734   12.8849   22.1376 C   0  0  0  0  0  0  0  0  0  0  0  0
   11.9390   14.3781   21.3115 Cl  0  0  0  0  0  0  0  0  0  0  0  0
   10.5308   12.9540   23.0508 C   0  0  0  0  0  0  0  0  0  0  0  0
    9.8702   13.9733   23.2000 O   0  0  0  0  0  0  0  0  0  0  0  0
   10.1132   11.7518   23.7420 C   0  0  0  0  0  0  0  0  0  0  0  0
    9.1230   11.8757   24.7156 C   0  0  0  0  0  0  0  0  0  0  0  0
    8.4429   10.7526   25.1426 C   0  0  0  0  0  0  0  0  0  0  0  0
    7.4137   10.8202   26.0937 N   0  0  0  0  0  0  0  0  0  0  0  0
    7.2174   11.8542   26.9884 C   0  0  0  0  0  0  0  0  0  0  0  0
    8.0138   12.7758   27.1847 O   0  0  0  0  0  0  0  0  0  0  0  0
    5.9908   11.7389   27.8803 C   0  0  1  0  0  0  0  0  0  0  0  0
    5.3395   13.1089   28.0181 C   0  0  0  0  0  0  0  0  0  0  0  0
    3.8905   12.8960   28.4070 C   0  0  0  0  0  0  0  0  0  0  0  0
    3.3559   11.8929   27.4123 C   0  0  0  0  0  0  0  0  0  0  0  0
    4.6791   10.6548   27.2595 S   0  0  0  0  0  0  0  0  0  0  0  0
    8.7621    9.5250   24.5652 C   0  0  0  0  0  0  0  0  0  0  0  0
    9.8345    9.3887   23.6770 C   0  0  0  0  0  0  0  0  0  0  0  0
   10.5292   10.5212   23.2726 C   0  0  0  0  0  0  0  0  0  0  0  0
  1  2  2  0
  2  3  1  0
  3  4  1  0
  3  5  2  0
  5  6  1  0
  5  7  1  0
  7  8  2  0
  7  9  1  0
  9 10  2  0
 10 11  1  0
 11 12  1  0
 12 13  1  0
 13 14  2  0
 15 13  1  6
 15 16  1  0
 16 17  1  0
 17 18  1  0
 18 19  1  0
 11 20  2  0
 20 21  1  0
 21 22  2  0
 22  2  1  0
 22  9  1  0
 19 15  1  0
M  END
>  <distance_score>  (269) 
0.599876

>  <ref_pdb>  (269) 
A1776a

>  <ref_mols>  (269) 
A1776a

>  <alias>  (269) 
None

>  <original SMILES>  (269) 
O=C1C(Cl)=C(Cl)C(=O)c2cc(NC(=O)[C@H]3CCCS3)ccc21

>  <inchikey>  (269) 
QWQQNSFHSBVESP-SNVBAGLBSA-N

>  <exports>  (269) 
['/opt/xchem-fragalysis-2/maxwin/2A_HIPPO/hippo/A71EV2A_10_recipes/Recipe_1LPVPY0_poses.sdf']

>  <original ID>  (269) 
QWQQNSFHSBVESP-SNVBAGLBSA-N

>  <energy_score>  (269) 
-14.19777

>  <tags>  (269) 
[]

>  <HIPPO ID>  (269) 
132043

>  <name>  (269) 
QWQQNSFHSBVESP-SNVBAGLBSA-N

$$$$
XGEHJBAORVMZNC-UHFFFAOYSA-N
     RDKit          3D

 21 23  0  0  0  0  0  0  0  0999 V2000
   11.9003   14.2511   19.6875 C   0  0  0  0  0  0  0  0  0  0  0  0
   11.4452   13.7264   21.0519 C   0  0  0  0  0  0  0  0  0  0  0  0
   10.3898   14.1523   21.5230 O   0  0  0  0  0  0  0  0  0  0  0  0
   12.2045   12.8360   21.8298 N   0  0  0  0  0  0  0  0  0  0  0  0
   13.0051   11.8622   21.1702 C   0  0  0  0  0  0  0  0  0  0  0  0
   12.4753   10.4836   21.4945 C   0  0  0  0  0  0  0  0  0  0  0  0
   11.7650   10.2248   22.8413 C   0  0  0  0  0  0  0  0  0  0  0  0
   10.3426    9.8849   22.5863 C   0  0  0  0  0  0  0  0  0  0  0  0
   10.0626    8.9562   21.8414 O   0  0  0  0  0  0  0  0  0  0  0  0
    9.2886   10.5029   23.4095 C   0  0  0  0  0  0  0  0  0  0  0  0
    8.6498    9.6245   24.2673 C   0  0  0  0  0  0  0  0  0  0  0  0
    7.7105   10.1245   25.1497 C   0  0  0  0  0  0  0  0  0  0  0  0
    7.5573   11.4734   25.2634 C   0  0  0  0  0  0  0  0  0  0  0  0
    8.1988   12.3713   24.4421 C   0  0  0  0  0  0  0  0  0  0  0  0
    9.0071   11.8843   23.4420 C   0  0  0  0  0  0  0  0  0  0  0  0
    7.7837   13.7608   24.8190 C   0  0  0  0  0  0  0  0  0  0  0  0
    6.7621   13.4744   25.9451 C   0  0  0  0  0  0  0  0  0  0  0  0
    6.0783   14.2437   26.5954 O   0  0  0  0  0  0  0  0  0  0  0  0
    6.7119   12.1110   26.1305 N   0  0  0  0  0  0  0  0  0  0  0  0
   11.8325   11.2907   23.8997 C   0  0  0  0  0  0  0  0  0  0  0  0
   12.0340   12.6370   23.3077 C   0  0  0  0  0  0  0  0  0  0  0  0
  1  2  1  0
  2  3  2  0
  2  4  1  0
  4  5  1  0
  5  6  1  0
  6  7  1  0
  7  8  1  0
  8  9  2  0
  8 10  1  0
 10 11  2  0
 11 12  1  0
 12 13  2  0
 13 14  1  0
 14 15  2  0
 14 16  1  0
 16 17  1  0
 17 18  2  0
 17 19  1  0
  7 20  1  0
 20 21  1  0
 21  4  1  0
 15 10  1  0
 19 13  1  0
M  END
>  <distance_score>  (270) 
1.615658

>  <ref_pdb>  (270) 
A1778a

>  <ref_mols>  (270) 
A1778a

>  <alias>  (270) 
None

>  <original SMILES>  (270) 
CC(=O)N1CCC(C(=O)c2ccc3c(c2)CC(=O)N3)CC1

>  <inchikey>  (270) 
XGEHJBAORVMZNC-UHFFFAOYSA-N

>  <exports>  (270) 
['/opt/xchem-fragalysis-2/maxwin/2A_HIPPO/hippo/A71EV2A_10_recipes/Recipe_1LPUPHX_poses.sdf', '/opt/xchem-fragalysis-2/maxwin/2A_HIPPO/hippo/A71EV2A_10_recipes/Recipe_1LPVPY0_poses.sdf']

>  <original ID>  (270) 
XGEHJBAORVMZNC-UHFFFAOYSA-N

>  <energy_score>  (270) 
22.728147

>  <tags>  (270) 
[]

>  <HIPPO ID>  (270) 
133625

>  <name>  (270) 
XGEHJBAORVMZNC-UHFFFAOYSA-N

$$$$
HELNCGFLRABPPE-UHFFFAOYSA-N
     RDKit          3D

 22 24  0  0  0  0  0  0  0  0999 V2000
   16.2373   15.2818   25.5897 N   0  0  0  0  0  0  0  0  0  0  0  0
   15.0608   14.4144   25.5932 C   0  0  0  0  0  0  0  0  0  0  0  0
   14.9519   13.5761   24.3338 C   0  0  0  0  0  0  0  0  0  0  0  0
   15.9133   13.3506   23.6084 O   0  0  0  0  0  0  0  0  0  0  0  0
   13.6747   13.3430   23.8175 N   0  0  0  0  0  0  0  0  0  0  0  0
   13.5656   12.8955   22.3978 C   0  0  0  0  0  0  0  0  0  0  0  0
   12.6087   11.8704   21.8902 C   0  0  0  0  0  0  0  0  0  0  0  0
   11.3714   11.9876   22.6958 C   0  0  0  0  0  0  0  0  0  0  0  0
   10.5609   10.7255   22.6520 C   0  0  0  0  0  0  0  0  0  0  0  0
   10.9060    9.6616   22.1611 O   0  0  0  0  0  0  0  0  0  0  0  0
    9.2843   10.9040   23.3695 C   0  0  0  0  0  0  0  0  0  0  0  0
    8.8082    9.8681   24.1524 C   0  0  0  0  0  0  0  0  0  0  0  0
    7.8111   10.1699   25.0711 C   0  0  0  0  0  0  0  0  0  0  0  0
    7.4551   11.4760   25.2914 C   0  0  0  0  0  0  0  0  0  0  0  0
    7.9152   12.4904   24.4951 C   0  0  0  0  0  0  0  0  0  0  0  0
    8.7318   12.2044   23.4469 C   0  0  0  0  0  0  0  0  0  0  0  0
    7.4142   13.8014   24.9740 C   0  0  0  0  0  0  0  0  0  0  0  0
    6.5721   13.3791   26.1790 C   0  0  0  0  0  0  0  0  0  0  0  0
    5.9688   14.1060   26.9481 O   0  0  0  0  0  0  0  0  0  0  0  0
    6.6185   11.9914   26.2569 N   0  0  0  0  0  0  0  0  0  0  0  0
   11.4527   12.4444   24.1826 C   0  0  0  0  0  0  0  0  0  0  0  0
   12.7428   12.8692   24.7826 C   0  0  0  0  0  0  0  0  0  0  0  0
  1  2  1  0
  2  3  1  0
  3  4  2  0
  3  5  1  0
  5  6  1  0
  6  7  1  0
  7  8  1  0
  8  9  1  0
  9 10  2  0
  9 11  1  0
 11 12  2  0
 12 13  1  0
 13 14  2  0
 14 15  1  0
 15 16  2  0
 15 17  1  0
 17 18  1  0
 18 19  2  0
 18 20  1  0
  8 21  1  0
 21 22  1  0
 22  5  1  0
 16 11  1  0
 20 14  1  0
M  END
>  <distance_score>  (271) 
1.616557

>  <ref_pdb>  (271) 
A1778a

>  <ref_mols>  (271) 
A1778a

>  <alias>  (271) 
None

>  <original SMILES>  (271) 
NCC(=O)N1CCC(C(=O)c2ccc3c(c2)CC(=O)N3)CC1

>  <inchikey>  (271) 
HELNCGFLRABPPE-UHFFFAOYSA-N

>  <exports>  (271) 
['/opt/xchem-fragalysis-2/maxwin/2A_HIPPO/hippo/A71EV2A_10_recipes/Recipe_1LPUPHX_poses.sdf', '/opt/xchem-fragalysis-2/maxwin/2A_HIPPO/hippo/A71EV2A_10_recipes/Recipe_1LPVPY0_poses.sdf']

>  <original ID>  (271) 
HELNCGFLRABPPE-UHFFFAOYSA-N

>  <energy_score>  (271) 
-1.428612

>  <tags>  (271) 
[]

>  <HIPPO ID>  (271) 
133876

>  <name>  (271) 
HELNCGFLRABPPE-UHFFFAOYSA-N

$$$$
KGBVVWICIGVOAB-UHFFFAOYSA-N
     RDKit          3D

 23 25  0  0  0  0  0  0  0  0999 V2000
   11.7225   17.2432   17.5559 C   0  0  0  0  0  0  0  0  0  0  0  0
   12.1830   16.5465   18.6038 C   0  0  0  0  0  0  0  0  0  0  0  0
   13.0757   17.5259   19.6472 Cl  0  0  0  0  0  0  0  0  0  0  0  0
   11.9941   15.0268   18.6785 C   0  0  0  0  0  0  0  0  0  0  0  0
   11.5853   14.4444   17.6741 O   0  0  0  0  0  0  0  0  0  0  0  0
   12.1438   14.2735   19.8431 N   0  0  0  0  0  0  0  0  0  0  0  0
   10.8942   14.2642   20.5649 C   0  0  0  0  0  0  0  0  0  0  0  0
   10.7114   13.2962   21.7221 C   0  0  0  0  0  0  0  0  0  0  0  0
   11.8749   12.3454   22.1082 C   0  0  0  0  0  0  0  0  0  0  0  0
   11.3050   11.0054   22.6036 C   0  0  0  0  0  0  0  0  0  0  0  0
   11.5657    9.9231   22.0837 O   0  0  0  0  0  0  0  0  0  0  0  0
   10.3232   11.0549   23.7297 C   0  0  0  0  0  0  0  0  0  0  0  0
    9.4948    9.9452   23.9273 C   0  0  0  0  0  0  0  0  0  0  0  0
    8.3715   10.0584   24.7427 C   0  0  0  0  0  0  0  0  0  0  0  0
    8.0515   11.2919   25.2575 C   0  0  0  0  0  0  0  0  0  0  0  0
    8.8953   12.3736   25.1133 C   0  0  0  0  0  0  0  0  0  0  0  0
   10.0906   12.2381   24.4476 C   0  0  0  0  0  0  0  0  0  0  0  0
    8.2654   13.5947   25.7033 C   0  0  0  0  0  0  0  0  0  0  0  0
    6.9789   13.0233   26.3094 C   0  0  0  0  0  0  0  0  0  0  0  0
    6.1474   13.6214   26.9710 O   0  0  0  0  0  0  0  0  0  0  0  0
    6.9288   11.6705   25.9732 N   0  0  0  0  0  0  0  0  0  0  0  0
   12.9818   12.1648   21.0570 C   0  0  0  0  0  0  0  0  0  0  0  0
   12.8372   12.9449   19.7461 C   0  0  0  0  0  0  0  0  0  0  0  0
  1  2  2  0
  2  3  1  0
  2  4  1  0
  4  5  2  0
  4  6  1  0
  6  7  1  0
  7  8  1  0
  8  9  1  0
  9 10  1  0
 10 11  2  0
 10 12  1  0
 12 13  2  0
 13 14  1  0
 14 15  2  0
 15 16  1  0
 16 17  2  0
 16 18  1  0
 18 19  1  0
 19 20  2  0
 19 21  1  0
  9 22  1  0
 22 23  1  0
 23  6  1  0
 17 12  1  0
 21 15  1  0
M  END
>  <distance_score>  (272) 
1.434524

>  <ref_pdb>  (272) 
A1778a

>  <ref_mols>  (272) 
A1778a

>  <alias>  (272) 
None

>  <original SMILES>  (272) 
C=C(Cl)C(=O)N1CCC(C(=O)c2ccc3c(c2)CC(=O)N3)CC1

>  <inchikey>  (272) 
KGBVVWICIGVOAB-UHFFFAOYSA-N

>  <exports>  (272) 
['/opt/xchem-fragalysis-2/maxwin/2A_HIPPO/hippo/A71EV2A_10_recipes/Recipe_1LPUPHX_poses.sdf', '/opt/xchem-fragalysis-2/maxwin/2A_HIPPO/hippo/A71EV2A_10_recipes/Recipe_1LPVPY0_poses.sdf']

>  <original ID>  (272) 
KGBVVWICIGVOAB-UHFFFAOYSA-N

>  <energy_score>  (272) 
-1.481584

>  <tags>  (272) 
[]

>  <HIPPO ID>  (272) 
133878

>  <name>  (272) 
KGBVVWICIGVOAB-UHFFFAOYSA-N

$$$$
PQUXRIKKCAPQTD-UHFFFAOYSA-N
     RDKit          3D

 23 25  0  0  0  0  0  0  0  0999 V2000
   17.2743   14.5482   19.3978 N   0  0  0  0  0  0  0  0  0  0  0  0
   16.6162   13.8051   19.9998 C   0  0  0  0  0  0  0  0  0  0  0  0
   15.7427   12.6703   20.4200 C   0  0  0  0  0  0  0  0  0  0  0  0
   15.0796   12.6520   21.7186 C   0  0  0  0  0  0  0  0  0  0  0  0
   15.5319   13.1107   22.7676 O   0  0  0  0  0  0  0  0  0  0  0  0
   13.7850   12.2033   21.5918 N   0  0  0  0  0  0  0  0  0  0  0  0
   13.2982   11.1913   20.7223 C   0  0  0  0  0  0  0  0  0  0  0  0
   12.3105   10.2847   21.4494 C   0  0  0  0  0  0  0  0  0  0  0  0
   11.5866   10.8098   22.6665 C   0  0  0  0  0  0  0  0  0  0  0  0
   10.2668   10.1539   22.7744 C   0  0  0  0  0  0  0  0  0  0  0  0
   10.0692    9.0598   22.2540 O   0  0  0  0  0  0  0  0  0  0  0  0
    9.2690   10.7257   23.6986 C   0  0  0  0  0  0  0  0  0  0  0  0
    8.5505    9.7923   24.4352 C   0  0  0  0  0  0  0  0  0  0  0  0
    7.5448   10.2192   25.2926 C   0  0  0  0  0  0  0  0  0  0  0  0
    7.3970   11.5521   25.5112 C   0  0  0  0  0  0  0  0  0  0  0  0
    8.1146   12.4880   24.8137 C   0  0  0  0  0  0  0  0  0  0  0  0
    8.9798   12.0911   23.8338 C   0  0  0  0  0  0  0  0  0  0  0  0
    7.7122   13.8528   25.2421 C   0  0  0  0  0  0  0  0  0  0  0  0
    6.6381   13.5343   26.2971 C   0  0  0  0  0  0  0  0  0  0  0  0
    5.9775   14.3066   26.9682 O   0  0  0  0  0  0  0  0  0  0  0  0
    6.5190   12.1599   26.3714 N   0  0  0  0  0  0  0  0  0  0  0  0
   11.5709   12.2820   22.7055 C   0  0  0  0  0  0  0  0  0  0  0  0
   12.8394   12.9248   22.3074 C   0  0  0  0  0  0  0  0  0  0  0  0
  1  2  3  0
  2  3  1  0
  3  4  1  0
  4  5  2  0
  4  6  1  0
  6  7  1  0
  7  8  1  0
  8  9  1  0
  9 10  1  0
 10 11  2  0
 10 12  1  0
 12 13  2  0
 13 14  1  0
 14 15  2  0
 15 16  1  0
 16 17  2  0
 16 18  1  0
 18 19  1  0
 19 20  2  0
 19 21  1  0
  9 22  1  0
 22 23  1  0
 23  6  1  0
 17 12  1  0
 21 15  1  0
M  END
>  <distance_score>  (273) 
1.718853

>  <ref_pdb>  (273) 
A1778a

>  <ref_mols>  (273) 
A1778a

>  <alias>  (273) 
None

>  <original SMILES>  (273) 
N#CCC(=O)N1CCC(C(=O)c2ccc3c(c2)CC(=O)N3)CC1

>  <inchikey>  (273) 
PQUXRIKKCAPQTD-UHFFFAOYSA-N

>  <exports>  (273) 
['/opt/xchem-fragalysis-2/maxwin/2A_HIPPO/hippo/A71EV2A_10_recipes/Recipe_1LPUPHX_poses.sdf', '/opt/xchem-fragalysis-2/maxwin/2A_HIPPO/hippo/A71EV2A_10_recipes/Recipe_1LPVPY0_poses.sdf']

>  <original ID>  (273) 
PQUXRIKKCAPQTD-UHFFFAOYSA-N

>  <energy_score>  (273) 
8.246444

>  <tags>  (273) 
[]

>  <HIPPO ID>  (273) 
133892

>  <name>  (273) 
PQUXRIKKCAPQTD-UHFFFAOYSA-N

$$$$
ANBAAHVCCNMFEA-UHFFFAOYSA-N
     RDKit          3D

 23 25  0  0  0  0  0  0  0  0999 V2000
   13.3439   18.4602   19.2623 C   0  0  0  0  0  0  0  0  0  0  0  0
   13.1394   17.2209   18.6046 O   0  0  0  0  0  0  0  0  0  0  0  0
   12.3375   16.3131   19.3502 C   0  0  0  0  0  0  0  0  0  0  0  0
   12.1506   14.8526   18.7891 C   0  0  0  0  0  0  0  0  0  0  0  0
   11.8567   14.6592   17.6166 O   0  0  0  0  0  0  0  0  0  0  0  0
   12.3712   13.7573   19.6190 N   0  0  0  0  0  0  0  0  0  0  0  0
   11.6059   13.7776   20.8329 C   0  0  0  0  0  0  0  0  0  0  0  0
   12.2727   12.9407   21.9228 C   0  0  0  0  0  0  0  0  0  0  0  0
   12.4154   11.5500   21.5020 C   0  0  0  0  0  0  0  0  0  0  0  0
   11.3473   10.5377   21.9022 C   0  0  0  0  0  0  0  0  0  0  0  0
   11.4639    9.3774   21.5194 O   0  0  0  0  0  0  0  0  0  0  0  0
   10.2638   10.8480   22.9231 C   0  0  0  0  0  0  0  0  0  0  0  0
    9.7079    9.7590   23.6077 C   0  0  0  0  0  0  0  0  0  0  0  0
    8.6837    9.9504   24.5408 C   0  0  0  0  0  0  0  0  0  0  0  0
    8.2975   11.2311   24.8601 C   0  0  0  0  0  0  0  0  0  0  0  0
    8.8338   12.3209   24.2181 C   0  0  0  0  0  0  0  0  0  0  0  0
    9.7355   12.1280   23.1959 C   0  0  0  0  0  0  0  0  0  0  0  0
    8.2295   13.5861   24.7443 C   0  0  0  0  0  0  0  0  0  0  0  0
    7.2356   13.0457   25.7739 C   0  0  0  0  0  0  0  0  0  0  0  0
    6.4888   13.6933   26.4860 O   0  0  0  0  0  0  0  0  0  0  0  0
    7.3333   11.6557   25.7560 N   0  0  0  0  0  0  0  0  0  0  0  0
   13.4790   11.5310   20.4188 C   0  0  0  0  0  0  0  0  0  0  0  0
   13.2954   12.5974   19.3178 C   0  0  0  0  0  0  0  0  0  0  0  0
  1  2  1  0
  2  3  1  0
  3  4  1  0
  4  5  2  0
  4  6  1  0
  6  7  1  0
  7  8  1  0
  8  9  1  0
  9 10  1  0
 10 11  2  0
 10 12  1  0
 12 13  2  0
 13 14  1  0
 14 15  2  0
 15 16  1  0
 16 17  2  0
 16 18  1  0
 18 19  1  0
 19 20  2  0
 19 21  1  0
  9 22  1  0
 22 23  1  0
 23  6  1  0
 17 12  1  0
 21 15  1  0
M  END
>  <distance_score>  (274) 
0.859691

>  <ref_pdb>  (274) 
A1778a

>  <ref_mols>  (274) 
A1778a

>  <alias>  (274) 
None

>  <original SMILES>  (274) 
COCC(=O)N1CCC(C(=O)c2ccc3c(c2)CC(=O)N3)CC1

>  <inchikey>  (274) 
ANBAAHVCCNMFEA-UHFFFAOYSA-N

>  <exports>  (274) 
['/opt/xchem-fragalysis-2/maxwin/2A_HIPPO/hippo/A71EV2A_10_recipes/Recipe_1LPUPHX_poses.sdf', '/opt/xchem-fragalysis-2/maxwin/2A_HIPPO/hippo/A71EV2A_10_recipes/Recipe_1LPVPY0_poses.sdf']

>  <original ID>  (274) 
ANBAAHVCCNMFEA-UHFFFAOYSA-N

>  <energy_score>  (274) 
38.365995

>  <tags>  (274) 
[]

>  <HIPPO ID>  (274) 
133896

>  <name>  (274) 
ANBAAHVCCNMFEA-UHFFFAOYSA-N

$$$$
HNUGGDDOKSTSTE-CYBMUJFWSA-N
     RDKit          3D

 24 26  0  0  0  0  0  0  0  0999 V2000
   11.6600   18.4975   19.7865 N   0  0  0  0  0  0  0  0  0  0  0  0
   12.7277   17.6030   19.3009 C   0  0  2  0  0  0  0  0  0  0  0  0
   13.6136   18.4693   18.4042 C   0  0  0  0  0  0  0  0  0  0  0  0
   12.7936   19.2423   17.0117 Cl  0  0  0  0  0  0  0  0  0  0  0  0
   12.1438   16.3356   18.6253 C   0  0  0  0  0  0  0  0  0  0  0  0
   11.6659   16.4298   17.4970 O   0  0  0  0  0  0  0  0  0  0  0  0
   12.3021   15.0961   19.2946 N   0  0  0  0  0  0  0  0  0  0  0  0
   11.4712   14.7703   20.3914 C   0  0  0  0  0  0  0  0  0  0  0  0
   11.9410   13.5082   21.1909 C   0  0  0  0  0  0  0  0  0  0  0  0
   12.7848   12.3614   20.6798 C   0  0  0  0  0  0  0  0  0  0  0  0
   12.3282   10.9911   21.3497 C   0  0  0  0  0  0  0  0  0  0  0  0
   12.7268    9.9175   20.9091 O   0  0  0  0  0  0  0  0  0  0  0  0
   11.3869   10.8925   22.5570 C   0  0  0  0  0  0  0  0  0  0  0  0
   10.5304    9.7768   22.6501 C   0  0  0  0  0  0  0  0  0  0  0  0
    9.4656    9.7333   23.5596 C   0  0  0  0  0  0  0  0  0  0  0  0
    9.2359   10.8631   24.3036 C   0  0  0  0  0  0  0  0  0  0  0  0
   10.1170   11.9319   24.2952 C   0  0  0  0  0  0  0  0  0  0  0  0
   11.2712   11.8826   23.5371 C   0  0  0  0  0  0  0  0  0  0  0  0
    9.5545   13.0544   25.1142 C   0  0  0  0  0  0  0  0  0  0  0  0
    8.2440   12.4445   25.6300 C   0  0  0  0  0  0  0  0  0  0  0  0
    7.4232   12.9658   26.3649 O   0  0  0  0  0  0  0  0  0  0  0  0
    8.1536   11.1568   25.1137 N   0  0  0  0  0  0  0  0  0  0  0  0
   13.1183   12.7169   19.1869 C   0  0  0  0  0  0  0  0  0  0  0  0
   12.2544   13.9207   18.5235 C   0  0  0  0  0  0  0  0  0  0  0  0
  2  1  1  6
  2  3  1  0
  3  4  1  0
  2  5  1  0
  5  6  2  0
  5  7  1  0
  7  8  1  0
  8  9  1  0
  9 10  1  0
 10 11  1  0
 11 12  2  0
 11 13  1  0
 13 14  2  0
 14 15  1  0
 15 16  2  0
 16 17  1  0
 17 18  2  0
 17 19  1  0
 19 20  1  0
 20 21  2  0
 20 22  1  0
 10 23  1  0
 23 24  1  0
 24  7  1  0
 18 13  1  0
 22 16  1  0
M  END
>  <distance_score>  (275) 
1.287887

>  <ref_pdb>  (275) 
A1778a

>  <ref_mols>  (275) 
A1778a

>  <alias>  (275) 
None

>  <original SMILES>  (275) 
N[C@H](CCl)C(=O)N1CCC(C(=O)c2ccc3c(c2)CC(=O)N3)CC1

>  <inchikey>  (275) 
HNUGGDDOKSTSTE-CYBMUJFWSA-N

>  <exports>  (275) 
['/opt/xchem-fragalysis-2/maxwin/2A_HIPPO/hippo/A71EV2A_10_recipes/Recipe_1LPVPY0_poses.sdf']

>  <original ID>  (275) 
HNUGGDDOKSTSTE-CYBMUJFWSA-N

>  <energy_score>  (275) 
37.731642

>  <tags>  (275) 
[]

>  <HIPPO ID>  (275) 
133951

>  <name>  (275) 
HNUGGDDOKSTSTE-CYBMUJFWSA-N

$$$$
HNUGGDDOKSTSTE-ZDUSSCGKSA-N
     RDKit          3D

 24 26  0  0  0  0  0  0  0  0999 V2000
   12.3964   16.0418   20.0389 N   0  0  0  0  0  0  0  0  0  0  0  0
   11.7283   14.9157   19.3975 C   0  0  1  0  0  0  0  0  0  0  0  0
   11.2588   15.3244   18.0223 C   0  0  0  0  0  0  0  0  0  0  0  0
   11.5582   17.0371   17.5419 Cl  0  0  0  0  0  0  0  0  0  0  0  0
   12.5483   13.5676   19.3578 C   0  0  0  0  0  0  0  0  0  0  0  0
   13.1777   13.1453   18.3916 O   0  0  0  0  0  0  0  0  0  0  0  0
   12.6284   12.7496   20.4746 N   0  0  0  0  0  0  0  0  0  0  0  0
   13.4773   11.6175   20.5552 C   0  0  0  0  0  0  0  0  0  0  0  0
   12.7056   10.4973   21.2224 C   0  0  0  0  0  0  0  0  0  0  0  0
   11.9126   10.8008   22.4952 C   0  0  0  0  0  0  0  0  0  0  0  0
   10.5361   10.2557   22.4581 C   0  0  0  0  0  0  0  0  0  0  0  0
   10.2946    9.2100   21.8642 O   0  0  0  0  0  0  0  0  0  0  0  0
    9.5349   10.7782   23.3995 C   0  0  0  0  0  0  0  0  0  0  0  0
    8.8946    9.8055   24.1626 C   0  0  0  0  0  0  0  0  0  0  0  0
    7.9132   10.1905   25.0543 C   0  0  0  0  0  0  0  0  0  0  0  0
    7.6952   11.5212   25.2584 C   0  0  0  0  0  0  0  0  0  0  0  0
    8.3305   12.4995   24.5257 C   0  0  0  0  0  0  0  0  0  0  0  0
    9.1888   12.1346   23.5200 C   0  0  0  0  0  0  0  0  0  0  0  0
    7.8499   13.8415   24.9722 C   0  0  0  0  0  0  0  0  0  0  0  0
    6.8149   13.4551   26.0467 C   0  0  0  0  0  0  0  0  0  0  0  0
    6.1071   14.1799   26.7223 O   0  0  0  0  0  0  0  0  0  0  0  0
    6.7976   12.0774   26.1348 N   0  0  0  0  0  0  0  0  0  0  0  0
   12.0690   12.2316   22.8915 C   0  0  0  0  0  0  0  0  0  0  0  0
   12.0354   13.1058   21.6778 C   0  0  0  0  0  0  0  0  0  0  0  0
  2  1  1  6
  2  3  1  0
  3  4  1  0
  2  5  1  0
  5  6  2  0
  5  7  1  0
  7  8  1  0
  8  9  1  0
  9 10  1  0
 10 11  1  0
 11 12  2  0
 11 13  1  0
 13 14  2  0
 14 15  1  0
 15 16  2  0
 16 17  1  0
 17 18  2  0
 17 19  1  0
 19 20  1  0
 20 21  2  0
 20 22  1  0
 10 23  1  0
 23 24  1  0
 24  7  1  0
 18 13  1  0
 22 16  1  0
M  END
>  <distance_score>  (276) 
1.398415

>  <ref_pdb>  (276) 
A1778a

>  <ref_mols>  (276) 
A1778a

>  <alias>  (276) 
None

>  <original SMILES>  (276) 
N[C@@H](CCl)C(=O)N1CCC(C(=O)c2ccc3c(c2)CC(=O)N3)CC1

>  <inchikey>  (276) 
HNUGGDDOKSTSTE-ZDUSSCGKSA-N

>  <exports>  (276) 
['/opt/xchem-fragalysis-2/maxwin/2A_HIPPO/hippo/A71EV2A_10_recipes/Recipe_1LPVPY0_poses.sdf']

>  <original ID>  (276) 
HNUGGDDOKSTSTE-ZDUSSCGKSA-N

>  <energy_score>  (276) 
25.314076

>  <tags>  (276) 
[]

>  <HIPPO ID>  (276) 
133952

>  <name>  (276) 
HNUGGDDOKSTSTE-ZDUSSCGKSA-N

$$$$
AFEQVLGRVAQILK-VWLOTQADSA-N
     RDKit          3D

 25 27  0  0  0  0  0  0  0  0999 V2000
   13.3837   19.1975   18.1109 C   0  0  0  0  0  0  0  0  0  0  0  0
   13.5069   17.9058   18.9083 C   0  0  0  0  0  0  0  0  0  0  0  0
   11.9082   17.1453   18.9514 S   0  0  0  0  0  3  0  0  0  0  0  0
   11.2479   18.3674   19.8849 O   0  0  0  0  0  1  0  0  0  0  0  0
   12.0444   15.7544   20.0835 C   0  0  0  0  0  0  0  0  0  0  0  0
   12.1492   14.2776   19.6851 C   0  0  0  0  0  0  0  0  0  0  0  0
   12.3981   13.8886   18.5510 O   0  0  0  0  0  0  0  0  0  0  0  0
   12.2347   13.3103   20.7537 N   0  0  0  0  0  0  0  0  0  0  0  0
   11.2020   13.1800   21.7528 C   0  0  0  0  0  0  0  0  0  0  0  0
   11.8360   12.4746   22.9672 C   0  0  0  0  0  0  0  0  0  0  0  0
   11.8205   11.0112   22.6264 C   0  0  0  0  0  0  0  0  0  0  0  0
   10.4942   10.3180   22.6475 C   0  0  0  0  0  0  0  0  0  0  0  0
   10.3383    9.2530   22.0566 O   0  0  0  0  0  0  0  0  0  0  0  0
    9.4486   10.7837   23.5925 C   0  0  0  0  0  0  0  0  0  0  0  0
    8.7541    9.7941   24.2772 C   0  0  0  0  0  0  0  0  0  0  0  0
    7.7388   10.1550   25.1604 C   0  0  0  0  0  0  0  0  0  0  0  0
    7.5268   11.4737   25.4379 C   0  0  0  0  0  0  0  0  0  0  0  0
    8.2132   12.4568   24.7850 C   0  0  0  0  0  0  0  0  0  0  0  0
    9.0981   12.1244   23.8011 C   0  0  0  0  0  0  0  0  0  0  0  0
    7.7758   13.7969   25.2544 C   0  0  0  0  0  0  0  0  0  0  0  0
    6.7066   13.4183   26.2857 C   0  0  0  0  0  0  0  0  0  0  0  0
    6.0342   14.1659   26.9736 O   0  0  0  0  0  0  0  0  0  0  0  0
    6.6214   12.0329   26.3097 N   0  0  0  0  0  0  0  0  0  0  0  0
   12.5748   10.8092   21.2997 C   0  0  0  0  0  0  0  0  0  0  0  0
   13.0834   12.0900   20.6000 C   0  0  0  0  0  0  0  0  0  0  0  0
  1  2  1  0
  2  3  1  0
  3  4  1  1
  3  5  1  0
  5  6  1  0
  6  7  2  0
  6  8  1  0
  8  9  1  0
  9 10  1  0
 10 11  1  0
 11 12  1  0
 12 13  2  0
 12 14  1  0
 14 15  2  0
 15 16  1  0
 16 17  2  0
 17 18  1  0
 18 19  2  0
 18 20  1  0
 20 21  1  0
 21 22  2  0
 21 23  1  0
 11 24  1  0
 24 25  1  0
 25  8  1  0
 19 14  1  0
 23 17  1  0
M  CHG  2   3   1   4  -1
M  END
>  <distance_score>  (277) 
1.511259

>  <ref_pdb>  (277) 
A1778a

>  <ref_mols>  (277) 
A1778a

>  <alias>  (277) 
None

>  <original SMILES>  (277) 
CC[S@+]([O-])CC(=O)N1CCC(C(=O)c2ccc3c(c2)CC(=O)N3)CC1

>  <inchikey>  (277) 
AFEQVLGRVAQILK-VWLOTQADSA-N

>  <exports>  (277) 
['/opt/xchem-fragalysis-2/maxwin/2A_HIPPO/hippo/A71EV2A_10_recipes/Recipe_1LPVPY0_poses.sdf']

>  <original ID>  (277) 
AFEQVLGRVAQILK-VWLOTQADSA-N

>  <energy_score>  (277) 
21.891871

>  <tags>  (277) 
[]

>  <HIPPO ID>  (277) 
133987

>  <name>  (277) 
AFEQVLGRVAQILK-VWLOTQADSA-N

$$$$
PUNHBLIXSHQSQV-HWPZZCPQSA-N
     RDKit          3D

 25 27  0  0  0  0  0  0  0  0999 V2000
    9.8953   14.8568   18.2053 C   0  0  0  0  0  0  0  0  0  0  0  0
   11.3280   15.3091   18.3394 C   0  0  1  0  0  0  0  0  0  0  0  0
   11.4366   16.7405   18.3321 O   0  0  0  0  0  0  0  0  0  0  0  0
   11.7872   14.7016   19.6516 C   0  0  2  0  0  0  0  0  0  0  0  0
   12.4274   15.6761   20.3504 F   0  0  0  0  0  0  0  0  0  0  0  0
   12.5778   13.3554   19.5145 C   0  0  0  0  0  0  0  0  0  0  0  0
   13.0434   12.9409   18.4576 O   0  0  0  0  0  0  0  0  0  0  0  0
   12.7909   12.5693   20.6634 N   0  0  0  0  0  0  0  0  0  0  0  0
   12.3995   13.0200   21.9308 C   0  0  0  0  0  0  0  0  0  0  0  0
   11.9368   12.1129   23.0146 C   0  0  0  0  0  0  0  0  0  0  0  0
   11.3910   10.9498   22.2740 C   0  0  0  0  0  0  0  0  0  0  0  0
   10.6316    9.9955   23.0955 C   0  0  0  0  0  0  0  0  0  0  0  0
   10.8952    8.8007   23.1117 O   0  0  0  0  0  0  0  0  0  0  0  0
    9.4552   10.5716   23.8081 C   0  0  0  0  0  0  0  0  0  0  0  0
    8.6573    9.6776   24.4953 C   0  0  0  0  0  0  0  0  0  0  0  0
    7.5917   10.1482   25.2529 C   0  0  0  0  0  0  0  0  0  0  0  0
    7.4264   11.4907   25.3970 C   0  0  0  0  0  0  0  0  0  0  0  0
    8.1629   12.3984   24.6827 C   0  0  0  0  0  0  0  0  0  0  0  0
    9.0919   11.9378   23.7882 C   0  0  0  0  0  0  0  0  0  0  0  0
    7.7286   13.7819   25.0369 C   0  0  0  0  0  0  0  0  0  0  0  0
    6.6325   13.4944   26.0826 C   0  0  0  0  0  0  0  0  0  0  0  0
    5.9573   14.2804   26.7213 O   0  0  0  0  0  0  0  0  0  0  0  0
    6.5131   12.1245   26.1976 N   0  0  0  0  0  0  0  0  0  0  0  0
   12.4504   10.3166   21.3853 C   0  0  0  0  0  0  0  0  0  0  0  0
   13.4256   11.2956   20.6934 C   0  0  0  0  0  0  0  0  0  0  0  0
  2  1  1  1
  2  3  1  0
  2  4  1  0
  4  5  1  6
  4  6  1  0
  6  7  2  0
  6  8  1  0
  8  9  1  0
  9 10  1  0
 10 11  1  0
 11 12  1  0
 12 13  2  0
 12 14  1  0
 14 15  2  0
 15 16  1  0
 16 17  2  0
 17 18  1  0
 18 19  2  0
 18 20  1  0
 20 21  1  0
 21 22  2  0
 21 23  1  0
 11 24  1  0
 24 25  1  0
 25  8  1  0
 19 14  1  0
 23 17  1  0
M  END
>  <distance_score>  (278) 
1.647773

>  <ref_pdb>  (278) 
A1778a

>  <ref_mols>  (278) 
A1778a

>  <alias>  (278) 
None

>  <original SMILES>  (278) 
C[C@@H](O)[C@H](F)C(=O)N1CCC(C(=O)c2ccc3c(c2)CC(=O)N3)CC1

>  <inchikey>  (278) 
PUNHBLIXSHQSQV-HWPZZCPQSA-N

>  <exports>  (278) 
['/opt/xchem-fragalysis-2/maxwin/2A_HIPPO/hippo/A71EV2A_10_recipes/Recipe_1LPVPY0_poses.sdf']

>  <original ID>  (278) 
PUNHBLIXSHQSQV-HWPZZCPQSA-N

>  <energy_score>  (278) 
33.926717

>  <tags>  (278) 
[]

>  <HIPPO ID>  (278) 
133991

>  <name>  (278) 
PUNHBLIXSHQSQV-HWPZZCPQSA-N

$$$$
NJUUPDSBWFQTPR-XSFVSMFZSA-N
     RDKit          3D

 25 27  0  0  0  0  0  0  0  0999 V2000
    9.5966    8.6912   22.0978 N   0  0  0  0  0  0  0  0  0  0  0  0
   10.5561    9.2300   21.7281 C   0  0  0  0  0  0  0  0  0  0  0  0
   11.9076    9.6835   21.6984 C   0  0  0  0  0  0  0  0  0  0  0  0
   12.4233    9.2792   22.8345 N   0  0  0  0  0  0  0  0  0  0  0  0
   11.6739    8.3819   23.6244 O   0  0  0  0  0  0  0  0  0  0  0  0
   12.8705   10.3710   20.6668 C   0  0  0  0  0  0  0  0  0  0  0  0
   13.8226    9.6313   20.3876 O   0  0  0  0  0  0  0  0  0  0  0  0
   13.1156   11.7159   19.9894 N   0  0  0  0  0  0  0  0  0  0  0  0
   12.4618   13.0492   19.7198 C   0  0  0  0  0  0  0  0  0  0  0  0
   12.0207   13.7637   20.9522 C   0  0  0  0  0  0  0  0  0  0  0  0
   12.6885   13.0947   22.1901 C   0  0  0  0  0  0  0  0  0  0  0  0
   11.4579   12.3223   22.7543 C   0  0  0  0  0  0  0  0  0  0  0  0
   10.7512   11.6449   22.0172 O   0  0  0  0  0  0  0  0  0  0  0  0
   10.7161   12.4268   24.0258 C   0  0  0  0  0  0  0  0  0  0  0  0
   10.4453   11.1415   24.5375 C   0  0  0  0  0  0  0  0  0  0  0  0
    9.1794   10.7267   24.9413 C   0  0  0  0  0  0  0  0  0  0  0  0
    8.2377   11.6885   25.0732 C   0  0  0  0  0  0  0  0  0  0  0  0
    8.4979   12.9952   24.6974 C   0  0  0  0  0  0  0  0  0  0  0  0
    9.7003   13.3830   24.1163 C   0  0  0  0  0  0  0  0  0  0  0  0
    7.2923   13.8036   25.0119 C   0  0  0  0  0  0  0  0  0  0  0  0
    6.3296   12.7950   25.6227 C   0  0  0  0  0  0  0  0  0  0  0  0
    5.2449   13.0276   26.1251 O   0  0  0  0  0  0  0  0  0  0  0  0
    6.9580   11.5610   25.5769 N   0  0  0  0  0  0  0  0  0  0  0  0
   14.0133   12.4916   21.7932 C   0  0  0  0  0  0  0  0  0  0  0  0
   14.4155   12.0556   20.4305 C   0  0  0  0  0  0  0  0  0  0  0  0
  1  2  3  0
  2  3  1  0
  3  4  2  0
  4  5  1  0
  3  6  1  0
  6  7  2  0
  6  8  1  0
  8  9  1  0
  9 10  1  0
 10 11  1  0
 11 12  1  0
 12 13  2  0
 12 14  1  0
 14 15  2  0
 15 16  1  0
 16 17  2  0
 17 18  1  0
 18 19  2  0
 18 20  1  0
 20 21  1  0
 21 22  2  0
 21 23  1  0
 11 24  1  0
 24 25  1  0
 25  8  1  0
 19 14  1  0
 23 17  1  0
M  END
>  <distance_score>  (279) 
1.753329

>  <ref_pdb>  (279) 
A1778a

>  <ref_mols>  (279) 
A1778a

>  <alias>  (279) 
None

>  <original SMILES>  (279) 
N#C/C(=N\O)C(=O)N1CCC(C(=O)c2ccc3c(c2)CC(=O)N3)CC1

>  <inchikey>  (279) 
NJUUPDSBWFQTPR-XSFVSMFZSA-N

>  <exports>  (279) 
['/opt/xchem-fragalysis-2/maxwin/2A_HIPPO/hippo/A71EV2A_10_recipes/Recipe_1LPVPY0_poses.sdf']

>  <original ID>  (279) 
NJUUPDSBWFQTPR-XSFVSMFZSA-N

>  <energy_score>  (279) 
182.322337

>  <tags>  (279) 
[]

>  <HIPPO ID>  (279) 
134015

>  <name>  (279) 
NJUUPDSBWFQTPR-XSFVSMFZSA-N

$$$$
NJUUPDSBWFQTPR-ZHZULCJRSA-N
     RDKit          3D

 25 27  0  0  0  0  0  0  0  0999 V2000
   17.4308   14.4162   19.5111 N   0  0  0  0  0  0  0  0  0  0  0  0
   16.5798   13.7561   19.9454 C   0  0  0  0  0  0  0  0  0  0  0  0
   15.3777   12.8839   20.1051 C   0  0  0  0  0  0  0  0  0  0  0  0
   14.6402   13.0639   19.0172 N   0  0  0  0  0  0  0  0  0  0  0  0
   13.2701   12.9934   18.9748 O   0  0  0  0  0  0  0  0  0  0  0  0
   14.9394   12.4729   21.4493 C   0  0  0  0  0  0  0  0  0  0  0  0
   15.4877   12.9795   22.4282 O   0  0  0  0  0  0  0  0  0  0  0  0
   13.6802   11.9831   21.5208 N   0  0  0  0  0  0  0  0  0  0  0  0
   12.7518   12.8171   22.1578 C   0  0  0  0  0  0  0  0  0  0  0  0
   11.5285   12.1964   22.7098 C   0  0  0  0  0  0  0  0  0  0  0  0
   11.5341   10.7170   22.8045 C   0  0  0  0  0  0  0  0  0  0  0  0
   10.1997   10.0977   22.9596 C   0  0  0  0  0  0  0  0  0  0  0  0
    9.9614    8.9958   22.4695 O   0  0  0  0  0  0  0  0  0  0  0  0
    9.2177   10.7147   23.8665 C   0  0  0  0  0  0  0  0  0  0  0  0
    8.4230    9.8048   24.5554 C   0  0  0  0  0  0  0  0  0  0  0  0
    7.3997   10.2496   25.3834 C   0  0  0  0  0  0  0  0  0  0  0  0
    7.2976   11.5818   25.6112 C   0  0  0  0  0  0  0  0  0  0  0  0
    8.0926   12.4938   24.9671 C   0  0  0  0  0  0  0  0  0  0  0  0
    8.9980   12.0850   24.0305 C   0  0  0  0  0  0  0  0  0  0  0  0
    7.7322   13.8666   25.3974 C   0  0  0  0  0  0  0  0  0  0  0  0
    6.6025   13.5813   26.4037 C   0  0  0  0  0  0  0  0  0  0  0  0
    5.9542   14.3697   27.0680 O   0  0  0  0  0  0  0  0  0  0  0  0
    6.4148   12.2141   26.4462 N   0  0  0  0  0  0  0  0  0  0  0  0
   12.1850   10.0471   21.6187 C   0  0  0  0  0  0  0  0  0  0  0  0
   13.2082   10.8490   20.8436 C   0  0  0  0  0  0  0  0  0  0  0  0
  1  2  3  0
  2  3  1  0
  3  4  2  0
  4  5  1  0
  3  6  1  0
  6  7  2  0
  6  8  1  0
  8  9  1  0
  9 10  1  0
 10 11  1  0
 11 12  1  0
 12 13  2  0
 12 14  1  0
 14 15  2  0
 15 16  1  0
 16 17  2  0
 17 18  1  0
 18 19  2  0
 18 20  1  0
 20 21  1  0
 21 22  2  0
 21 23  1  0
 11 24  1  0
 24 25  1  0
 25  8  1  0
 19 14  1  0
 23 17  1  0
M  END
>  <distance_score>  (280) 
1.839606

>  <ref_pdb>  (280) 
A1778a

>  <ref_mols>  (280) 
A1778a

>  <alias>  (280) 
None

>  <original SMILES>  (280) 
N#C/C(=N/O)C(=O)N1CCC(C(=O)c2ccc3c(c2)CC(=O)N3)CC1

>  <inchikey>  (280) 
NJUUPDSBWFQTPR-ZHZULCJRSA-N

>  <exports>  (280) 
['/opt/xchem-fragalysis-2/maxwin/2A_HIPPO/hippo/A71EV2A_10_recipes/Recipe_1LPVPY0_poses.sdf']

>  <original ID>  (280) 
NJUUPDSBWFQTPR-ZHZULCJRSA-N

>  <energy_score>  (280) 
17.927132

>  <tags>  (280) 
[]

>  <HIPPO ID>  (280) 
134016

>  <name>  (280) 
NJUUPDSBWFQTPR-ZHZULCJRSA-N

$$$$
QCDPODCBNROZRQ-UHFFFAOYSA-N
     RDKit          3D

 20 21  0  0  0  0  0  0  0  0999 V2000
   11.7212   15.9002   23.7442 C   0  0  0  0  0  0  0  0  0  0  0  0
   11.7726   14.7511   24.7379 C   0  0  0  0  0  0  0  0  0  0  0  0
   10.8561   13.7115   24.2943 N   0  0  0  0  0  0  0  0  0  0  0  0
   10.8603   13.2861   23.0039 C   0  0  0  0  0  0  0  0  0  0  0  0
   11.6724   13.6629   22.1682 O   0  0  0  0  0  0  0  0  0  0  0  0
    9.9092   12.3769   22.6883 N   0  0  0  0  0  0  0  0  0  0  0  0
    9.0413   11.7152   23.5684 C   0  0  0  0  0  0  0  0  0  0  0  0
    9.1369   10.3251   23.5130 C   0  0  0  0  0  0  0  0  0  0  0  0
    8.3919    9.5463   24.3782 C   0  0  0  0  0  0  0  0  0  0  0  0
    7.5515   10.1398   25.3084 C   0  0  0  0  0  0  0  0  0  0  0  0
    7.4521   11.5200   25.3745 C   0  0  0  0  0  0  0  0  0  0  0  0
    8.1462   12.3414   24.4742 C   0  0  0  0  0  0  0  0  0  0  0  0
    7.9413   13.8355   24.5740 C   0  0  0  0  0  0  0  0  0  0  0  0
    6.2260   14.3720   24.4649 S   0  0  0  0  0  6  0  0  0  0  0  0
    5.8691   14.1342   22.8432 N   0  0  0  0  0  0  0  0  0  0  0  0
    5.3390   13.5268   25.2262 O   0  0  0  0  0  0  0  0  0  0  0  0
    6.2061   15.7956   24.6911 O   0  0  0  0  0  0  0  0  0  0  0  0
   13.1536   14.1626   25.1233 C   0  0  0  0  0  0  0  0  0  0  0  0
   13.0554   14.8691   26.4853 C   0  0  0  0  0  0  0  0  0  0  0  0
   11.5532   15.0422   26.2433 C   0  0  0  0  0  0  0  0  0  0  0  0
  1  2  1  0
  2  3  1  0
  3  4  1  0
  4  5  2  0
  4  6  1  0
  6  7  1  0
  7  8  2  0
  8  9  1  0
  9 10  2  0
 10 11  1  0
 11 12  2  0
 12 13  1  0
 13 14  1  0
 14 15  1  0
 14 16  2  0
 14 17  2  0
  2 18  1  0
 18 19  1  0
 19 20  1  0
 20  2  1  0
 12  7  1  0
M  END
>  <distance_score>  (281) 
1.04846

>  <ref_pdb>  (281) 
A0310a

>  <ref_mols>  (281) 
A0719a,A0884a

>  <alias>  (281) 
None

>  <original SMILES>  (281) 
CC1(NC(=O)Nc2ccccc2CS(N)(=O)=O)CCC1

>  <inchikey>  (281) 
QCDPODCBNROZRQ-UHFFFAOYSA-N

>  <exports>  (281) 
['/opt/xchem-fragalysis-2/maxwin/2A_HIPPO/hippo/A71EV2A_10_recipes/Recipe_1LPUPHX_poses.sdf', '/opt/xchem-fragalysis-2/maxwin/2A_HIPPO/hippo/A71EV2A_10_recipes/Recipe_1LPVPY0_poses.sdf']

>  <original ID>  (281) 
QCDPODCBNROZRQ-UHFFFAOYSA-N

>  <energy_score>  (281) 
-36.824973

>  <tags>  (281) 
['Syndirella scaffold']

>  <HIPPO ID>  (281) 
134066

>  <name>  (281) 
QCDPODCBNROZRQ-UHFFFAOYSA-N

$$$$
NCIGQLWICNIMFU-UHFFFAOYSA-N
     RDKit          3D

 22 23  0  0  0  0  0  0  0  0999 V2000
    7.1139   14.8080   27.3608 C   0  0  0  0  0  0  0  0  0  0  0  0
    8.2220   14.3424   26.7674 C   0  0  0  0  0  0  0  0  0  0  0  0
    9.3491   15.2474   26.3608 C   0  0  0  0  0  0  0  0  0  0  0  0
   10.4163   14.7826   25.3345 C   0  0  0  0  0  0  0  0  0  0  0  0
    9.8919   13.8300   24.4068 N   0  0  0  0  0  0  0  0  0  0  0  0
   10.2991   13.5196   23.1352 C   0  0  0  0  0  0  0  0  0  0  0  0
   11.2155   14.0199   22.5046 O   0  0  0  0  0  0  0  0  0  0  0  0
    9.5714   12.4703   22.6324 N   0  0  0  0  0  0  0  0  0  0  0  0
    8.6126   11.7892   23.4140 C   0  0  0  0  0  0  0  0  0  0  0  0
    8.9199   10.4630   23.6931 C   0  0  0  0  0  0  0  0  0  0  0  0
    8.1827    9.7990   24.6544 C   0  0  0  0  0  0  0  0  0  0  0  0
    7.1683   10.4502   25.3538 C   0  0  0  0  0  0  0  0  0  0  0  0
    6.8156   11.7629   25.0310 C   0  0  0  0  0  0  0  0  0  0  0  0
    7.4884   12.4550   24.0178 C   0  0  0  0  0  0  0  0  0  0  0  0
    7.1589   13.8936   23.6240 C   0  0  0  0  0  0  0  0  0  0  0  0
    5.4911   14.5154   23.7975 S   0  0  0  0  0  6  0  0  0  0  0  0
    5.7461   16.1283   23.5572 N   0  0  0  0  0  0  0  0  0  0  0  0
    4.6669   14.1621   22.6699 O   0  0  0  0  0  0  0  0  0  0  0  0
    5.0328   14.4611   25.1645 O   0  0  0  0  0  0  0  0  0  0  0  0
   11.4115   15.7599   24.7002 C   0  0  0  0  0  0  0  0  0  0  0  0
   12.5760   15.0339   25.3391 C   0  0  0  0  0  0  0  0  0  0  0  0
   11.5899   14.1590   26.0150 C   0  0  0  0  0  0  0  0  0  0  0  0
  1  2  2  0
  2  3  1  0
  3  4  1  0
  4  5  1  0
  5  6  1  0
  6  7  2  0
  6  8  1  0
  8  9  1  0
  9 10  2  0
 10 11  1  0
 11 12  2  0
 12 13  1  0
 13 14  2  0
 14 15  1  0
 15 16  1  0
 16 17  1  0
 16 18  2  0
 16 19  2  0
  4 20  1  0
 20 21  1  0
 21 22  1  0
 22  4  1  0
 14  9  1  0
M  END
>  <distance_score>  (282) 
1.804856

>  <ref_pdb>  (282) 
A0310a

>  <ref_mols>  (282) 
A0719a,A0884a

>  <alias>  (282) 
None

>  <original SMILES>  (282) 
C=CCC1(NC(=O)Nc2ccccc2CS(N)(=O)=O)CCC1

>  <inchikey>  (282) 
NCIGQLWICNIMFU-UHFFFAOYSA-N

>  <exports>  (282) 
['/opt/xchem-fragalysis-2/maxwin/2A_HIPPO/hippo/A71EV2A_10_recipes/Recipe_1LPVPY0_poses.sdf']

>  <original ID>  (282) 
NCIGQLWICNIMFU-UHFFFAOYSA-N

>  <energy_score>  (282) 
-12.070441

>  <tags>  (282) 
[]

>  <HIPPO ID>  (282) 
134634

>  <name>  (282) 
NCIGQLWICNIMFU-UHFFFAOYSA-N

$$$$
LFLWDMQUQKNTME-UHFFFAOYSA-N
     RDKit          3D

 22 23  0  0  0  0  0  0  0  0999 V2000
    5.8342   14.0999   22.8882 N   0  0  0  0  0  0  0  0  0  0  0  0
    6.0164   14.4260   24.5243 S   0  0  0  0  0  6  0  0  0  0  0  0
    6.0039   15.8612   24.6549 O   0  0  0  0  0  0  0  0  0  0  0  0
    5.0484   13.6301   25.2395 O   0  0  0  0  0  0  0  0  0  0  0  0
    7.6875   13.8824   24.8540 C   0  0  0  0  0  0  0  0  0  0  0  0
    7.8828   12.3874   24.7699 C   0  0  0  0  0  0  0  0  0  0  0  0
    7.1752   11.5977   25.6891 C   0  0  0  0  0  0  0  0  0  0  0  0
    7.2508   10.2153   25.6468 C   0  0  0  0  0  0  0  0  0  0  0  0
    8.0846    9.5949   24.7285 C   0  0  0  0  0  0  0  0  0  0  0  0
    8.8310   10.3369   23.8414 C   0  0  0  0  0  0  0  0  0  0  0  0
    8.7359   11.7224   23.8539 C   0  0  0  0  0  0  0  0  0  0  0  0
    9.5143   12.3236   22.8703 N   0  0  0  0  0  0  0  0  0  0  0  0
   10.2273   13.4578   22.9306 C   0  0  0  0  0  0  0  0  0  0  0  0
   10.5880   13.9830   21.8901 O   0  0  0  0  0  0  0  0  0  0  0  0
   10.5513   13.8499   24.1941 N   0  0  0  0  0  0  0  0  0  0  0  0
   11.5676   14.8652   24.4832 C   0  0  0  0  0  0  0  0  0  0  0  0
   11.4489   15.2887   25.9341 C   0  0  0  0  0  0  0  0  0  0  0  0
   11.3703   14.2069   26.7407 F   0  0  0  0  0  0  0  0  0  0  0  0
   10.2753   15.9387   26.1581 F   0  0  0  0  0  0  0  0  0  0  0  0
   11.7254   15.9338   23.3653 C   0  0  0  0  0  0  0  0  0  0  0  0
   12.9367   15.1804   22.8432 C   0  0  0  0  0  0  0  0  0  0  0  0
   12.9664   14.3251   24.1253 C   0  0  0  0  0  0  0  0  0  0  0  0
  1  2  1  0
  2  3  2  0
  2  4  2  0
  2  5  1  0
  5  6  1  0
  6  7  2  0
  7  8  1  0
  8  9  2  0
  9 10  1  0
 10 11  2  0
 11 12  1  0
 12 13  1  0
 13 14  2  0
 13 15  1  0
 15 16  1  0
 16 17  1  0
 17 18  1  0
 17 19  1  0
 16 20  1  0
 20 21  1  0
 21 22  1  0
 11  6  1  0
 22 16  1  0
M  END
>  <distance_score>  (283) 
1.109187

>  <ref_pdb>  (283) 
A0310a

>  <ref_mols>  (283) 
A0719a,A0884a

>  <alias>  (283) 
None

>  <original SMILES>  (283) 
NS(=O)(=O)Cc1ccccc1NC(=O)NC1(C(F)F)CCC1

>  <inchikey>  (283) 
LFLWDMQUQKNTME-UHFFFAOYSA-N

>  <exports>  (283) 
['/opt/xchem-fragalysis-2/maxwin/2A_HIPPO/hippo/A71EV2A_10_recipes/Recipe_1LPUPHX_poses.sdf', '/opt/xchem-fragalysis-2/maxwin/2A_HIPPO/hippo/A71EV2A_10_recipes/Recipe_1LPVPY0_poses.sdf']

>  <original ID>  (283) 
LFLWDMQUQKNTME-UHFFFAOYSA-N

>  <energy_score>  (283) 
-33.574809

>  <tags>  (283) 
[]

>  <HIPPO ID>  (283) 
134696

>  <name>  (283) 
LFLWDMQUQKNTME-UHFFFAOYSA-N

$$$$
YJFNFQHMQJCPRG-UHFFFAOYSA-N
     RDKit          3D

 12 12  0  0  0  0  0  0  0  0999 V2000
    5.5274   11.9220   26.9600 C   0  0  0  0  0  0  0  0  0  0  0  0
    6.7849   12.2259   26.1729 C   0  0  0  0  0  0  0  0  0  0  0  0
    7.3393   10.9951   25.7231 O   0  0  0  0  0  0  0  0  0  0  0  0
    8.4476   11.0748   24.9304 C   0  0  0  0  0  0  0  0  0  0  0  0
    9.2084   12.2159   24.7014 C   0  0  0  0  0  0  0  0  0  0  0  0
   10.2893   12.1668   23.8214 C   0  0  0  0  0  0  0  0  0  0  0  0
   10.6218   10.9684   23.1813 C   0  0  0  0  0  0  0  0  0  0  0  0
   11.6903   10.8968   22.1613 C   0  0  0  0  0  0  0  0  0  0  0  0
   12.4143   12.1711   21.8024 C   0  0  0  0  0  0  0  0  0  0  0  0
   11.9345    9.8244   21.6102 O   0  0  0  0  0  0  0  0  0  0  0  0
    9.8981    9.8116   23.4549 C   0  0  0  0  0  0  0  0  0  0  0  0
    8.8141    9.8765   24.3198 C   0  0  0  0  0  0  0  0  0  0  0  0
  1  2  1  0
  2  3  1  0
  3  4  1  0
  4  5  2  0
  5  6  1  0
  6  7  2  0
  7  8  1  0
  8  9  1  0
  8 10  2  0
  7 11  1  0
 11 12  2  0
 12  4  1  0
M  END
>  <distance_score>  (284) 
0.507466

>  <ref_pdb>  (284) 
A1775a

>  <ref_mols>  (284) 
A1775a

>  <alias>  (284) 
None

>  <original SMILES>  (284) 
CCOc1ccc(C(C)=O)cc1

>  <inchikey>  (284) 
YJFNFQHMQJCPRG-UHFFFAOYSA-N

>  <exports>  (284) 
['/opt/xchem-fragalysis-2/maxwin/2A_HIPPO/hippo/A71EV2A_10_recipes/Recipe_1LPUPHX_poses.sdf', '/opt/xchem-fragalysis-2/maxwin/2A_HIPPO/hippo/A71EV2A_10_recipes/Recipe_1LPVPY0_poses.sdf']

>  <original ID>  (284) 
YJFNFQHMQJCPRG-UHFFFAOYSA-N

>  <energy_score>  (284) 
-10.886583

>  <tags>  (284) 
['Syndirella scaffold']

>  <HIPPO ID>  (284) 
141580

>  <name>  (284) 
YJFNFQHMQJCPRG-UHFFFAOYSA-N

$$$$
XBNORBDNHZAFON-UHFFFAOYSA-N
     RDKit          3D

 13 13  0  0  0  0  0  0  0  0999 V2000
   12.4283   12.1617   21.7885 C   0  0  0  0  0  0  0  0  0  0  0  0
   11.7057   10.8861   22.1463 C   0  0  0  0  0  0  0  0  0  0  0  0
   11.9498    9.8148   21.5937 O   0  0  0  0  0  0  0  0  0  0  0  0
   10.6374   10.9541   23.1658 C   0  0  0  0  0  0  0  0  0  0  0  0
   10.2999   12.1527   23.8012 C   0  0  0  0  0  0  0  0  0  0  0  0
    9.2132   12.2013   24.6728 C   0  0  0  0  0  0  0  0  0  0  0  0
    8.4515   11.0592   24.8993 C   0  0  0  0  0  0  0  0  0  0  0  0
    7.3283   10.9836   25.6729 O   0  0  0  0  0  0  0  0  0  0  0  0
    6.8265   12.2146   26.1755 C   0  0  0  0  0  0  0  0  0  0  0  0
    5.5678   11.9644   26.9773 C   0  0  0  0  0  0  0  0  0  0  0  0
    5.2765   13.0938   27.6773 F   0  0  0  0  0  0  0  0  0  0  0  0
    8.8256    9.8596   24.2968 C   0  0  0  0  0  0  0  0  0  0  0  0
    9.9158    9.7958   23.4396 C   0  0  0  0  0  0  0  0  0  0  0  0
  1  2  1  0
  2  3  2  0
  2  4  1  0
  4  5  2  0
  5  6  1  0
  6  7  2  0
  7  8  1  0
  8  9  1  0
  9 10  1  0
 10 11  1  0
  7 12  1  0
 12 13  2  0
 13  4  1  0
M  END
>  <distance_score>  (285) 
0.490861

>  <ref_pdb>  (285) 
A1775a

>  <ref_mols>  (285) 
A1775a

>  <alias>  (285) 
None

>  <original SMILES>  (285) 
CC(=O)c1ccc(OCCF)cc1

>  <inchikey>  (285) 
XBNORBDNHZAFON-UHFFFAOYSA-N

>  <exports>  (285) 
['/opt/xchem-fragalysis-2/maxwin/2A_HIPPO/hippo/A71EV2A_10_recipes/Recipe_1LPVPY0_poses.sdf']

>  <original ID>  (285) 
XBNORBDNHZAFON-UHFFFAOYSA-N

>  <energy_score>  (285) 
-18.075403

>  <tags>  (285) 
[]

>  <HIPPO ID>  (285) 
141585

>  <name>  (285) 
XBNORBDNHZAFON-UHFFFAOYSA-N

$$$$
QAKGFZZJDVQCAG-UHFFFAOYSA-N
     RDKit          3D

 13 13  0  0  0  0  0  0  0  0999 V2000
   12.4279   12.1627   21.7891 C   0  0  0  0  0  0  0  0  0  0  0  0
   11.7035   10.8884   22.1483 C   0  0  0  0  0  0  0  0  0  0  0  0
   11.9446    9.8166   21.5954 O   0  0  0  0  0  0  0  0  0  0  0  0
   10.6361   10.9590   23.1687 C   0  0  0  0  0  0  0  0  0  0  0  0
   10.3027   12.1581   23.8056 C   0  0  0  0  0  0  0  0  0  0  0  0
    9.2196   12.2084   24.6814 C   0  0  0  0  0  0  0  0  0  0  0  0
    8.4569   11.0671   24.9087 C   0  0  0  0  0  0  0  0  0  0  0  0
    7.3425   10.9956   25.6954 O   0  0  0  0  0  0  0  0  0  0  0  0
    6.7404   12.2376   26.0224 C   0  0  0  0  0  0  0  0  0  0  0  0
    5.4857   11.9530   26.7973 C   0  0  0  0  0  0  0  0  0  0  0  0
    5.1136   12.6448   27.7412 O   0  0  0  0  0  0  0  0  0  0  0  0
    8.8276    9.8661   24.3071 C   0  0  0  0  0  0  0  0  0  0  0  0
    9.9139    9.8015   23.4451 C   0  0  0  0  0  0  0  0  0  0  0  0
  1  2  1  0
  2  3  2  0
  2  4  1  0
  4  5  2  0
  5  6  1  0
  6  7  2  0
  7  8  1  0
  8  9  1  0
  9 10  1  0
 10 11  2  0
  7 12  1  0
 12 13  2  0
 13  4  1  0
M  END
>  <distance_score>  (286) 
0.487484

>  <ref_pdb>  (286) 
A1775a

>  <ref_mols>  (286) 
A1775a

>  <alias>  (286) 
None

>  <original SMILES>  (286) 
CC(=O)c1ccc(OCC=O)cc1

>  <inchikey>  (286) 
QAKGFZZJDVQCAG-UHFFFAOYSA-N

>  <exports>  (286) 
['/opt/xchem-fragalysis-2/maxwin/2A_HIPPO/hippo/A71EV2A_10_recipes/Recipe_1LPVPY0_poses.sdf']

>  <original ID>  (286) 
QAKGFZZJDVQCAG-UHFFFAOYSA-N

>  <energy_score>  (286) 
-14.208957

>  <tags>  (286) 
[]

>  <HIPPO ID>  (286) 
141587

>  <name>  (286) 
QAKGFZZJDVQCAG-UHFFFAOYSA-N

$$$$
LMPOOCSNZQWRBX-UHFFFAOYSA-N
     RDKit          3D

 13 13  0  0  0  0  0  0  0  0999 V2000
   12.4130   12.1748   21.8060 C   0  0  0  0  0  0  0  0  0  0  0  0
   11.6918   10.8986   22.1623 C   0  0  0  0  0  0  0  0  0  0  0  0
   11.9373    9.8276   21.6094 O   0  0  0  0  0  0  0  0  0  0  0  0
   10.6220   10.9655   23.1812 C   0  0  0  0  0  0  0  0  0  0  0  0
    9.9039    9.8050   23.4526 C   0  0  0  0  0  0  0  0  0  0  0  0
    8.8154    9.8640   24.3116 C   0  0  0  0  0  0  0  0  0  0  0  0
    8.4368   11.0616   24.9160 C   0  0  0  0  0  0  0  0  0  0  0  0
    7.3210   10.9761   25.6967 O   0  0  0  0  0  0  0  0  0  0  0  0
    6.6803   12.2052   26.0345 C   0  0  0  0  0  0  0  0  0  0  0  0
    5.4173   11.9403   26.7335 C   0  0  0  0  0  0  0  0  0  0  0  0
    4.4215   11.7556   27.3005 N   0  0  0  0  0  0  0  0  0  0  0  0
    9.1955   12.2061   24.6968 C   0  0  0  0  0  0  0  0  0  0  0  0
   10.2816   12.1616   23.8222 C   0  0  0  0  0  0  0  0  0  0  0  0
  1  2  1  0
  2  3  2  0
  2  4  1  0
  4  5  2  0
  5  6  1  0
  6  7  2  0
  7  8  1  0
  8  9  1  0
  9 10  1  0
 10 11  3  0
  7 12  1  0
 12 13  2  0
 13  4  1  0
M  END
>  <distance_score>  (287) 
0.504363

>  <ref_pdb>  (287) 
A1775a

>  <ref_mols>  (287) 
A1775a

>  <alias>  (287) 
None

>  <original SMILES>  (287) 
CC(=O)c1ccc(OCC#N)cc1

>  <inchikey>  (287) 
LMPOOCSNZQWRBX-UHFFFAOYSA-N

>  <exports>  (287) 
['/opt/xchem-fragalysis-2/maxwin/2A_HIPPO/hippo/A71EV2A_10_recipes/Recipe_1LPVPY0_poses.sdf']

>  <original ID>  (287) 
LMPOOCSNZQWRBX-UHFFFAOYSA-N

>  <energy_score>  (287) 
-140.377892

>  <tags>  (287) 
[]

>  <HIPPO ID>  (287) 
141592

>  <name>  (287) 
LMPOOCSNZQWRBX-UHFFFAOYSA-N

$$$$
QRVRYBJTVILKOK-UHFFFAOYSA-N
     RDKit          3D

 13 13  0  0  0  0  0  0  0  0999 V2000
   12.4497   12.1576   21.7603 C   0  0  0  0  0  0  0  0  0  0  0  0
   11.7243   10.8852   22.1215 C   0  0  0  0  0  0  0  0  0  0  0  0
   11.9636    9.8123   21.5695 O   0  0  0  0  0  0  0  0  0  0  0  0
   10.6625   10.9564   23.1466 C   0  0  0  0  0  0  0  0  0  0  0  0
    9.9393    9.7985   23.4223 C   0  0  0  0  0  0  0  0  0  0  0  0
    8.8718    9.8574   24.3061 C   0  0  0  0  0  0  0  0  0  0  0  0
    8.5257   11.0538   24.9284 C   0  0  0  0  0  0  0  0  0  0  0  0
    7.4533   10.9840   25.7700 O   0  0  0  0  0  0  0  0  0  0  0  0
    6.7016   12.1897   25.8835 C   0  0  0  0  0  0  0  0  0  0  0  0
    5.4289   11.8845   26.6420 C   0  0  0  0  0  0  0  0  0  0  0  0
    4.1468   13.3090   26.3599 Br  0  0  0  0  0  0  0  0  0  0  0  0
    9.2813   12.1982   24.6947 C   0  0  0  0  0  0  0  0  0  0  0  0
   10.3436   12.1535   23.7956 C   0  0  0  0  0  0  0  0  0  0  0  0
  1  2  1  0
  2  3  2  0
  2  4  1  0
  4  5  2  0
  5  6  1  0
  6  7  2  0
  7  8  1  0
  8  9  1  0
  9 10  1  0
 10 11  1  0
  7 12  1  0
 12 13  2  0
 13  4  1  0
M  END
>  <distance_score>  (288) 
0.476276

>  <ref_pdb>  (288) 
A1775a

>  <ref_mols>  (288) 
A1775a

>  <alias>  (288) 
None

>  <original SMILES>  (288) 
CC(=O)c1ccc(OCCBr)cc1

>  <inchikey>  (288) 
QRVRYBJTVILKOK-UHFFFAOYSA-N

>  <exports>  (288) 
['/opt/xchem-fragalysis-2/maxwin/2A_HIPPO/hippo/A71EV2A_10_recipes/Recipe_1LPVPY0_poses.sdf']

>  <original ID>  (288) 
QRVRYBJTVILKOK-UHFFFAOYSA-N

>  <energy_score>  (288) 
-6.215866

>  <tags>  (288) 
[]

>  <HIPPO ID>  (288) 
141593

>  <name>  (288) 
QRVRYBJTVILKOK-UHFFFAOYSA-N

$$$$
CBMYGMRLSCLFPD-UHFFFAOYSA-N
     RDKit          3D

 13 13  0  0  0  0  0  0  0  0999 V2000
    5.3637   11.7512   26.6708 C   0  0  0  0  0  0  0  0  0  0  0  0
    6.4633   12.0532   25.6732 C   0  0  0  0  0  0  0  0  0  0  0  0
    7.5863   11.2396   26.0105 O   0  0  0  0  0  0  0  0  0  0  0  0
    8.5548   11.2330   25.0414 C   0  0  0  0  0  0  0  0  0  0  0  0
    8.8041   10.0165   24.4093 C   0  0  0  0  0  0  0  0  0  0  0  0
    9.8379    9.9010   23.4892 C   0  0  0  0  0  0  0  0  0  0  0  0
   10.5998   11.0247   23.1724 C   0  0  0  0  0  0  0  0  0  0  0  0
   11.6625   10.8944   22.1500 C   0  0  0  0  0  0  0  0  0  0  0  0
   12.4317   12.1365   21.7629 C   0  0  0  0  0  0  0  0  0  0  0  0
   11.8753    9.8002   21.6298 O   0  0  0  0  0  0  0  0  0  0  0  0
   10.3428   12.2478   23.8033 C   0  0  0  0  0  0  0  0  0  0  0  0
    9.3736   12.3420   24.7989 C   0  0  0  0  0  0  0  0  0  0  0  0
    9.1412   13.5808   25.4168 N   0  0  0  0  0  0  0  0  0  0  0  0
  1  2  1  0
  2  3  1  0
  3  4  1  0
  4  5  2  0
  5  6  1  0
  6  7  2  0
  7  8  1  0
  8  9  1  0
  8 10  2  0
  7 11  1  0
 11 12  2  0
 12 13  1  0
 12  4  1  0
M  END
>  <distance_score>  (289) 
0.892923

>  <ref_pdb>  (289) 
A1775a

>  <ref_mols>  (289) 
A1775a

>  <alias>  (289) 
None

>  <original SMILES>  (289) 
CCOc1ccc(C(C)=O)cc1N

>  <inchikey>  (289) 
CBMYGMRLSCLFPD-UHFFFAOYSA-N

>  <exports>  (289) 
['/opt/xchem-fragalysis-2/maxwin/2A_HIPPO/hippo/A71EV2A_10_recipes/Recipe_1LPVPY0_poses.sdf']

>  <original ID>  (289) 
CBMYGMRLSCLFPD-UHFFFAOYSA-N

>  <energy_score>  (289) 
-17.527075

>  <tags>  (289) 
[]

>  <HIPPO ID>  (289) 
141601

>  <name>  (289) 
CBMYGMRLSCLFPD-UHFFFAOYSA-N

$$$$
DDSDHBVTRWVNDT-UHFFFAOYSA-N
     RDKit          3D

 13 13  0  0  0  0  0  0  0  0999 V2000
    5.5728   11.9470   26.9255 C   0  0  0  0  0  0  0  0  0  0  0  0
    6.8293   12.2655   26.1419 C   0  0  0  0  0  0  0  0  0  0  0  0
    7.4087   11.0420   25.7100 O   0  0  0  0  0  0  0  0  0  0  0  0
    8.5100   11.1217   24.9067 C   0  0  0  0  0  0  0  0  0  0  0  0
    9.2778   12.2584   24.6840 C   0  0  0  0  0  0  0  0  0  0  0  0
   10.3550   12.2018   23.7970 C   0  0  0  0  0  0  0  0  0  0  0  0
   10.6764   11.0018   23.1480 C   0  0  0  0  0  0  0  0  0  0  0  0
   11.7362   10.9171   22.1237 C   0  0  0  0  0  0  0  0  0  0  0  0
   12.4666   12.1807   21.7537 C   0  0  0  0  0  0  0  0  0  0  0  0
   11.9669    9.8392   21.5783 O   0  0  0  0  0  0  0  0  0  0  0  0
    9.9486    9.8503   23.4118 C   0  0  0  0  0  0  0  0  0  0  0  0
    8.8750    9.9326   24.2735 C   0  0  0  0  0  0  0  0  0  0  0  0
    8.1383    8.8378   24.4561 F   0  0  0  0  0  0  0  0  0  0  0  0
  1  2  1  0
  2  3  1  0
  3  4  1  0
  4  5  2  0
  5  6  1  0
  6  7  2  0
  7  8  1  0
  8  9  1  0
  8 10  2  0
  7 11  1  0
 11 12  2  0
 12 13  1  0
 12  4  1  0
M  END
>  <distance_score>  (290) 
0.488911

>  <ref_pdb>  (290) 
A1775a

>  <ref_mols>  (290) 
A1775a

>  <alias>  (290) 
None

>  <original SMILES>  (290) 
CCOc1ccc(C(C)=O)cc1F

>  <inchikey>  (290) 
DDSDHBVTRWVNDT-UHFFFAOYSA-N

>  <exports>  (290) 
['/opt/xchem-fragalysis-2/maxwin/2A_HIPPO/hippo/A71EV2A_10_recipes/Recipe_1LPVPY0_poses.sdf']

>  <original ID>  (290) 
DDSDHBVTRWVNDT-UHFFFAOYSA-N

>  <energy_score>  (290) 
-15.488037

>  <tags>  (290) 
[]

>  <HIPPO ID>  (290) 
141603

>  <name>  (290) 
DDSDHBVTRWVNDT-UHFFFAOYSA-N

$$$$
ZYLJLWLQPBRDLN-UHFFFAOYSA-N
     RDKit          3D

 13 13  0  0  0  0  0  0  0  0999 V2000
    5.5706   11.9799   26.9309 C   0  0  0  0  0  0  0  0  0  0  0  0
    6.8235   12.2708   26.1306 C   0  0  0  0  0  0  0  0  0  0  0  0
    7.3797   11.0329   25.7082 O   0  0  0  0  0  0  0  0  0  0  0  0
    8.4785   11.0923   24.9018 C   0  0  0  0  0  0  0  0  0  0  0  0
    8.8264    9.8768   24.3203 C   0  0  0  0  0  0  0  0  0  0  0  0
    9.9029    9.7793   23.4514 C   0  0  0  0  0  0  0  0  0  0  0  0
   10.6416   10.9190   23.1366 C   0  0  0  0  0  0  0  0  0  0  0  0
   11.7024   10.7822   22.1113 C   0  0  0  0  0  0  0  0  0  0  0  0
   11.8728    9.6695   21.6130 O   0  0  0  0  0  0  0  0  0  0  0  0
   12.4746   12.0259   21.7089 C   0  0  0  0  0  0  0  0  0  0  0  0
   13.7032   11.6010   20.4895 Cl  0  0  0  0  0  0  0  0  0  0  0  0
   10.3237   12.1387   23.7425 C   0  0  0  0  0  0  0  0  0  0  0  0
    9.2474   12.2204   24.6315 C   0  0  0  0  0  0  0  0  0  0  0  0
  1  2  1  0
  2  3  1  0
  3  4  1  0
  4  5  2  0
  5  6  1  0
  6  7  2  0
  7  8  1  0
  8  9  2  0
  8 10  1  0
 10 11  1  0
  7 12  1  0
 12 13  2  0
 13  4  1  0
M  END
>  <distance_score>  (291) 
0.399232

>  <ref_pdb>  (291) 
A1775a

>  <ref_mols>  (291) 
A1775a

>  <alias>  (291) 
None

>  <original SMILES>  (291) 
CCOc1ccc(C(=O)CCl)cc1

>  <inchikey>  (291) 
ZYLJLWLQPBRDLN-UHFFFAOYSA-N

>  <exports>  (291) 
['/opt/xchem-fragalysis-2/maxwin/2A_HIPPO/hippo/A71EV2A_10_recipes/Recipe_1LPUPHX_poses.sdf', '/opt/xchem-fragalysis-2/maxwin/2A_HIPPO/hippo/A71EV2A_10_recipes/Recipe_1LPVPY0_poses.sdf']

>  <original ID>  (291) 
ZYLJLWLQPBRDLN-UHFFFAOYSA-N

>  <energy_score>  (291) 
-7.795087

>  <tags>  (291) 
[]

>  <HIPPO ID>  (291) 
141609

>  <name>  (291) 
ZYLJLWLQPBRDLN-UHFFFAOYSA-N

$$$$
FLMVKFTYGACBNH-UHFFFAOYSA-N
     RDKit          3D

 13 14  0  0  0  0  0  0  0  0999 V2000
    5.7029   11.9867   26.8138 C   0  0  0  0  0  0  0  0  0  0  0  0
    6.9225   12.2589   25.9552 C   0  0  0  0  0  0  0  0  0  0  0  0
    7.4973   11.0112   25.5900 O   0  0  0  0  0  0  0  0  0  0  0  0
    8.5845   11.0456   24.7611 C   0  0  0  0  0  0  0  0  0  0  0  0
    8.9369    9.7886   24.2376 C   0  0  0  0  0  0  0  0  0  0  0  0
   10.0070    9.6330   23.3682 C   0  0  0  0  0  0  0  0  0  0  0  0
   10.6916   10.7752   23.0289 C   0  0  0  0  0  0  0  0  0  0  0  0
   10.3788   12.0325   23.5266 C   0  0  0  0  0  0  0  0  0  0  0  0
    9.3237   12.1806   24.4151 C   0  0  0  0  0  0  0  0  0  0  0  0
   11.2546   13.0991   22.9472 C   0  0  0  0  0  0  0  0  0  0  0  0
   12.2076   12.3573   22.0169 C   0  0  0  0  0  0  0  0  0  0  0  0
   11.7702   10.9092   22.0743 C   0  0  0  0  0  0  0  0  0  0  0  0
   12.1944    9.9681   21.4266 O   0  0  0  0  0  0  0  0  0  0  0  0
  1  2  1  0
  2  3  1  0
  3  4  1  0
  4  5  2  0
  5  6  1  0
  6  7  2  0
  7  8  1  0
  8  9  2  0
  8 10  1  0
 10 11  1  0
 11 12  1  0
 12 13  2  0
  9  4  1  0
 12  7  1  0
M  END
>  <distance_score>  (292) 
1.134177

>  <ref_pdb>  (292) 
A1775a

>  <ref_mols>  (292) 
A1775a

>  <alias>  (292) 
None

>  <original SMILES>  (292) 
CCOc1ccc2c(c1)CCC2=O

>  <inchikey>  (292) 
FLMVKFTYGACBNH-UHFFFAOYSA-N

>  <exports>  (292) 
['/opt/xchem-fragalysis-2/maxwin/2A_HIPPO/hippo/A71EV2A_10_recipes/Recipe_1LPUPHX_poses.sdf', '/opt/xchem-fragalysis-2/maxwin/2A_HIPPO/hippo/A71EV2A_10_recipes/Recipe_1LPVPY0_poses.sdf']

>  <original ID>  (292) 
FLMVKFTYGACBNH-UHFFFAOYSA-N

>  <energy_score>  (292) 
-20.131646

>  <tags>  (292) 
[]

>  <HIPPO ID>  (292) 
141613

>  <name>  (292) 
FLMVKFTYGACBNH-UHFFFAOYSA-N

$$$$
XZJXCESWBMDSBO-UHFFFAOYSA-N
     RDKit          3D

 13 13  0  0  0  0  0  0  0  0999 V2000
    5.6344   11.9801   26.8896 C   0  0  0  0  0  0  0  0  0  0  0  0
    6.8765   12.2776   26.0741 C   0  0  0  0  0  0  0  0  0  0  0  0
    7.4487   11.0421   25.6665 O   0  0  0  0  0  0  0  0  0  0  0  0
    8.5423   11.1028   24.8526 C   0  0  0  0  0  0  0  0  0  0  0  0
    9.3043   12.2328   24.5640 C   0  0  0  0  0  0  0  0  0  0  0  0
   10.3801   12.1472   23.6715 C   0  0  0  0  0  0  0  0  0  0  0  0
   10.7031   10.9232   23.0807 C   0  0  0  0  0  0  0  0  0  0  0  0
   11.7596   10.7745   22.0507 C   0  0  0  0  0  0  0  0  0  0  0  0
   11.9024    9.6653   21.5356 O   0  0  0  0  0  0  0  0  0  0  0  0
   12.5805   11.9896   21.6274 C   0  0  0  0  0  0  0  0  0  0  0  0
   13.6522   11.6176   20.5942 C   0  0  0  0  0  0  0  0  0  0  0  0
    9.9684    9.7835   23.4115 C   0  0  0  0  0  0  0  0  0  0  0  0
    8.8933    9.8827   24.2827 C   0  0  0  0  0  0  0  0  0  0  0  0
  1  2  1  0
  2  3  1  0
  3  4  1  0
  4  5  2  0
  5  6  1  0
  6  7  2  0
  7  8  1  0
  8  9  2  0
  8 10  1  0
 10 11  1  0
  7 12  1  0
 12 13  2  0
 13  4  1  0
M  END
>  <distance_score>  (293) 
0.365029

>  <ref_pdb>  (293) 
A1775a

>  <ref_mols>  (293) 
A1775a

>  <alias>  (293) 
None

>  <original SMILES>  (293) 
CCOc1ccc(C(=O)CC)cc1

>  <inchikey>  (293) 
XZJXCESWBMDSBO-UHFFFAOYSA-N

>  <exports>  (293) 
['/opt/xchem-fragalysis-2/maxwin/2A_HIPPO/hippo/A71EV2A_10_recipes/Recipe_1LPUPHX_poses.sdf', '/opt/xchem-fragalysis-2/maxwin/2A_HIPPO/hippo/A71EV2A_10_recipes/Recipe_1LPVPY0_poses.sdf']

>  <original ID>  (293) 
XZJXCESWBMDSBO-UHFFFAOYSA-N

>  <energy_score>  (293) 
-16.042958

>  <tags>  (293) 
[]

>  <HIPPO ID>  (293) 
141617

>  <name>  (293) 
XZJXCESWBMDSBO-UHFFFAOYSA-N

$$$$
IZIKZNOLOCUEQB-UHFFFAOYSA-N
     RDKit          3D

 13 13  0  0  0  0  0  0  0  0999 V2000
   12.4221   12.1652   21.7969 C   0  0  0  0  0  0  0  0  0  0  0  0
   11.6953   10.8920   22.1547 C   0  0  0  0  0  0  0  0  0  0  0  0
   11.9361    9.8200   21.6017 O   0  0  0  0  0  0  0  0  0  0  0  0
   10.6257   10.9650   23.1730 C   0  0  0  0  0  0  0  0  0  0  0  0
   10.2888   12.1663   23.8045 C   0  0  0  0  0  0  0  0  0  0  0  0
    9.2067   12.2176   24.6821 C   0  0  0  0  0  0  0  0  0  0  0  0
    8.4487   11.0757   24.9170 C   0  0  0  0  0  0  0  0  0  0  0  0
    7.3430   11.0009   25.7140 O   0  0  0  0  0  0  0  0  0  0  0  0
    6.6934   12.2355   26.0135 C   0  0  0  0  0  0  0  0  0  0  0  0
    5.4427   11.9642   26.8353 C   0  0  0  0  0  0  0  0  0  0  0  0
    5.8727   11.6041   28.5302 Cl  0  0  0  0  0  0  0  0  0  0  0  0
    8.8213    9.8736   24.3184 C   0  0  0  0  0  0  0  0  0  0  0  0
    9.9060    9.8073   23.4543 C   0  0  0  0  0  0  0  0  0  0  0  0
  1  2  1  0
  2  3  2  0
  2  4  1  0
  4  5  2  0
  5  6  1  0
  6  7  2  0
  7  8  1  0
  8  9  1  0
  9 10  1  0
 10 11  1  0
  7 12  1  0
 12 13  2  0
 13  4  1  0
M  END
>  <distance_score>  (294) 
0.499535

>  <ref_pdb>  (294) 
A1775a

>  <ref_mols>  (294) 
A1775a

>  <alias>  (294) 
None

>  <original SMILES>  (294) 
CC(=O)c1ccc(OCCCl)cc1

>  <inchikey>  (294) 
IZIKZNOLOCUEQB-UHFFFAOYSA-N

>  <exports>  (294) 
['/opt/xchem-fragalysis-2/maxwin/2A_HIPPO/hippo/A71EV2A_10_recipes/Recipe_1LPVPY0_poses.sdf']

>  <original ID>  (294) 
IZIKZNOLOCUEQB-UHFFFAOYSA-N

>  <energy_score>  (294) 
-14.351949

>  <tags>  (294) 
[]

>  <HIPPO ID>  (294) 
141618

>  <name>  (294) 
IZIKZNOLOCUEQB-UHFFFAOYSA-N

$$$$
XKGAJQNHILUEDO-UHFFFAOYSA-N
     RDKit          3D

 14 14  0  0  0  0  0  0  0  0999 V2000
    6.2844   12.8845   24.8548 C   0  0  0  0  0  0  0  0  0  0  0  0
    6.4445   11.9467   25.8027 C   0  0  0  0  0  0  0  0  0  0  0  0
    5.3423   11.6692   26.7972 C   0  0  0  0  0  0  0  0  0  0  0  0
    5.9982   11.9097   28.7971 I   0  0  0  0  0  0  0  0  0  0  0  0
    7.4964   11.0482   25.8851 O   0  0  0  0  0  0  0  0  0  0  0  0
    8.5402   11.0820   25.0013 C   0  0  0  0  0  0  0  0  0  0  0  0
    9.3617   12.1935   24.8484 C   0  0  0  0  0  0  0  0  0  0  0  0
   10.4081   12.1500   23.9312 C   0  0  0  0  0  0  0  0  0  0  0  0
   10.6552   10.9767   23.2066 C   0  0  0  0  0  0  0  0  0  0  0  0
   11.6995   10.9057   22.1623 C   0  0  0  0  0  0  0  0  0  0  0  0
   12.4131   12.1805   21.7886 C   0  0  0  0  0  0  0  0  0  0  0  0
   11.9301    9.8339   21.6041 O   0  0  0  0  0  0  0  0  0  0  0  0
    9.8799    9.8394   23.4277 C   0  0  0  0  0  0  0  0  0  0  0  0
    8.8214    9.9007   24.3209 C   0  0  0  0  0  0  0  0  0  0  0  0
  1  2  2  0
  2  3  1  0
  3  4  1  0
  2  5  1  0
  5  6  1  0
  6  7  2  0
  7  8  1  0
  8  9  2  0
  9 10  1  0
 10 11  1  0
 10 12  2  0
  9 13  1  0
 13 14  2  0
 14  6  1  0
M  END
>  <distance_score>  (295) 
0.894133

>  <ref_pdb>  (295) 
A1775a

>  <ref_mols>  (295) 
A1775a

>  <alias>  (295) 
None

>  <original SMILES>  (295) 
C=C(CI)Oc1ccc(C(C)=O)cc1

>  <inchikey>  (295) 
XKGAJQNHILUEDO-UHFFFAOYSA-N

>  <exports>  (295) 
['/opt/xchem-fragalysis-2/maxwin/2A_HIPPO/hippo/A71EV2A_10_recipes/Recipe_1LPVPY0_poses.sdf']

>  <original ID>  (295) 
XKGAJQNHILUEDO-UHFFFAOYSA-N

>  <energy_score>  (295) 
-11.302618

>  <tags>  (295) 
[]

>  <HIPPO ID>  (295) 
141621

>  <name>  (295) 
XKGAJQNHILUEDO-UHFFFAOYSA-N

$$$$
GQHAVAKLVAASDI-UHFFFAOYSA-N
     RDKit          3D

 14 15  0  0  0  0  0  0  0  0999 V2000
   12.1172    9.9748   21.4532 O   0  0  0  0  0  0  0  0  0  0  0  0
   11.7259   10.9131   22.1253 C   0  0  0  0  0  0  0  0  0  0  0  0
   12.1892   12.3554   22.0841 C   0  0  0  0  0  0  0  0  0  0  0  0
   11.4541   13.0382   23.2323 C   0  0  0  0  0  0  0  0  0  0  0  0
   10.4507   12.0260   23.6900 C   0  0  0  0  0  0  0  0  0  0  0  0
    9.4229   12.1863   24.6068 C   0  0  0  0  0  0  0  0  0  0  0  0
    8.6076   11.0835   24.8834 C   0  0  0  0  0  0  0  0  0  0  0  0
    7.5563   11.1059   25.7636 O   0  0  0  0  0  0  0  0  0  0  0  0
    6.7062   12.2455   25.6138 C   0  0  0  0  0  0  0  0  0  0  0  0
    5.4042   12.0247   26.3638 C   0  0  0  0  0  0  0  0  0  0  0  0
    5.5319   12.7127   28.1866 Br  0  0  0  0  0  0  0  0  0  0  0  0
    8.8690    9.8375   24.2914 C   0  0  0  0  0  0  0  0  0  0  0  0
    9.9068    9.6721   23.3839 C   0  0  0  0  0  0  0  0  0  0  0  0
   10.6588   10.7876   23.0963 C   0  0  0  0  0  0  0  0  0  0  0  0
  1  2  2  0
  2  3  1  0
  3  4  1  0
  4  5  1  0
  5  6  2  0
  6  7  1  0
  7  8  1  0
  8  9  1  0
  9 10  1  0
 10 11  1  0
  7 12  2  0
 12 13  1  0
 13 14  2  0
 14  2  1  0
 14  5  1  0
M  END
>  <distance_score>  (296) 
1.148373

>  <ref_pdb>  (296) 
A1775a

>  <ref_mols>  (296) 
A1775a

>  <alias>  (296) 
None

>  <original SMILES>  (296) 
O=C1CCc2cc(OCCBr)ccc21

>  <inchikey>  (296) 
GQHAVAKLVAASDI-UHFFFAOYSA-N

>  <exports>  (296) 
['/opt/xchem-fragalysis-2/maxwin/2A_HIPPO/hippo/A71EV2A_10_recipes/Recipe_1LPVPY0_poses.sdf']

>  <original ID>  (296) 
GQHAVAKLVAASDI-UHFFFAOYSA-N

>  <energy_score>  (296) 
-13.946075

>  <tags>  (296) 
[]

>  <HIPPO ID>  (296) 
141645

>  <name>  (296) 
GQHAVAKLVAASDI-UHFFFAOYSA-N

$$$$
REUVZTCTXBQZKJ-ONEGZZNKSA-N
     RDKit          3D

 14 14  0  0  0  0  0  0  0  0999 V2000
    3.1785   12.4902   27.4393 C   0  0  0  0  0  0  0  0  0  0  0  0
    4.4278   12.6663   26.6416 C   0  0  0  0  0  0  0  0  0  0  0  0
    5.5361   11.9318   26.8191 C   0  0  0  0  0  0  0  0  0  0  0  0
    6.8147   12.1952   26.0961 C   0  0  0  0  0  0  0  0  0  0  0  0
    7.3469   10.9554   25.6520 O   0  0  0  0  0  0  0  0  0  0  0  0
    8.4754   11.0329   24.8857 C   0  0  0  0  0  0  0  0  0  0  0  0
    8.8474    9.8370   24.2755 C   0  0  0  0  0  0  0  0  0  0  0  0
    9.9370    9.7791   23.4183 C   0  0  0  0  0  0  0  0  0  0  0  0
   10.6596   10.9393   23.1542 C   0  0  0  0  0  0  0  0  0  0  0  0
   11.7234   10.8791   22.1305 C   0  0  0  0  0  0  0  0  0  0  0  0
   12.4403   12.1581   21.7740 C   0  0  0  0  0  0  0  0  0  0  0  0
   11.9678    9.8108   21.5721 O   0  0  0  0  0  0  0  0  0  0  0  0
   10.3278   12.1326   23.8024 C   0  0  0  0  0  0  0  0  0  0  0  0
    9.2423   12.1752   24.6745 C   0  0  0  0  0  0  0  0  0  0  0  0
  1  2  1  0
  2  3  2  0
  3  4  1  0
  4  5  1  0
  5  6  1  0
  6  7  2  0
  7  8  1  0
  8  9  2  0
  9 10  1  0
 10 11  1  0
 10 12  2  0
  9 13  1  0
 13 14  2  0
 14  6  1  0
M  END
>  <distance_score>  (297) 
0.836151

>  <ref_pdb>  (297) 
A1775a

>  <ref_mols>  (297) 
A1775a

>  <alias>  (297) 
None

>  <original SMILES>  (297) 
C/C=C/COc1ccc(C(C)=O)cc1

>  <inchikey>  (297) 
REUVZTCTXBQZKJ-ONEGZZNKSA-N

>  <exports>  (297) 
['/opt/xchem-fragalysis-2/maxwin/2A_HIPPO/hippo/A71EV2A_10_recipes/Recipe_1LPVPY0_poses.sdf']

>  <original ID>  (297) 
REUVZTCTXBQZKJ-ONEGZZNKSA-N

>  <energy_score>  (297) 
-7.893467

>  <tags>  (297) 
[]

>  <HIPPO ID>  (297) 
141681

>  <name>  (297) 
REUVZTCTXBQZKJ-ONEGZZNKSA-N

$$$$
DXPUIBMQECWLJL-UHFFFAOYSA-N
     RDKit          3D

 14 14  0  0  0  0  0  0  0  0999 V2000
   12.5046   12.1256   21.6848 C   0  0  0  0  0  0  0  0  0  0  0  0
   11.7229   10.9096   22.1161 C   0  0  0  0  0  0  0  0  0  0  0  0
   11.8951    9.8015   21.6121 O   0  0  0  0  0  0  0  0  0  0  0  0
   10.6886   11.0860   23.1581 C   0  0  0  0  0  0  0  0  0  0  0  0
   10.5034   12.3150   23.8098 C   0  0  0  0  0  0  0  0  0  0  0  0
    9.5031   12.4574   24.7661 C   0  0  0  0  0  0  0  0  0  0  0  0
    8.6740   11.3799   25.0444 C   0  0  0  0  0  0  0  0  0  0  0  0
    7.7573   11.4896   26.0499 O   0  0  0  0  0  0  0  0  0  0  0  0
    6.5353   12.0619   25.5853 C   0  0  0  0  0  0  0  0  0  0  0  0
    5.5199   12.0713   26.7152 C   0  0  0  0  0  0  0  0  0  0  0  0
    5.0441   10.4114   27.1420 Cl  0  0  0  0  0  0  0  0  0  0  0  0
    8.8676   10.1620   24.3956 C   0  0  0  0  0  0  0  0  0  0  0  0
    8.0658    9.1286   24.6566 F   0  0  0  0  0  0  0  0  0  0  0  0
    9.8731    9.9983   23.4623 C   0  0  0  0  0  0  0  0  0  0  0  0
  1  2  1  0
  2  3  2  0
  2  4  1  0
  4  5  2  0
  5  6  1  0
  6  7  2  0
  7  8  1  0
  8  9  1  0
  9 10  1  0
 10 11  1  0
  7 12  1  0
 12 13  1  0
 12 14  2  0
 14  4  1  0
M  END
>  <distance_score>  (298) 
0.586771

>  <ref_pdb>  (298) 
A1775a

>  <ref_mols>  (298) 
A1775a

>  <alias>  (298) 
None

>  <original SMILES>  (298) 
CC(=O)c1ccc(OCCCl)c(F)c1

>  <inchikey>  (298) 
DXPUIBMQECWLJL-UHFFFAOYSA-N

>  <exports>  (298) 
['/opt/xchem-fragalysis-2/maxwin/2A_HIPPO/hippo/A71EV2A_10_recipes/Recipe_1LPVPY0_poses.sdf']

>  <original ID>  (298) 
DXPUIBMQECWLJL-UHFFFAOYSA-N

>  <energy_score>  (298) 
-6.434485

>  <tags>  (298) 
[]

>  <HIPPO ID>  (298) 
141708

>  <name>  (298) 
DXPUIBMQECWLJL-UHFFFAOYSA-N

$$$$
FQYYQADCSGSGLI-UHFFFAOYSA-N
     RDKit          3D

 14 14  0  0  0  0  0  0  0  0999 V2000
   12.4579   12.1908   21.7654 C   0  0  0  0  0  0  0  0  0  0  0  0
   11.7344   10.9227   22.1311 C   0  0  0  0  0  0  0  0  0  0  0  0
   11.9692    9.8482   21.5809 O   0  0  0  0  0  0  0  0  0  0  0  0
   10.6750   10.9978   23.1564 C   0  0  0  0  0  0  0  0  0  0  0  0
   10.3468   12.1923   23.8136 C   0  0  0  0  0  0  0  0  0  0  0  0
    9.2639   12.2400   24.6951 C   0  0  0  0  0  0  0  0  0  0  0  0
    8.4977   11.0995   24.9001 C   0  0  0  0  0  0  0  0  0  0  0  0
    7.3825   11.0086   25.6822 O   0  0  0  0  0  0  0  0  0  0  0  0
    6.7900   12.2235   26.1044 C   0  0  0  0  0  0  0  0  0  0  0  0
    5.4706   11.8779   26.7386 C   0  0  0  0  0  0  0  0  0  0  0  0
    4.4887   12.6114   26.6767 O   0  0  0  0  0  0  0  0  0  0  0  0
    8.8742    9.9149   24.2652 C   0  0  0  0  0  0  0  0  0  0  0  0
    8.1396    8.8180   24.4399 F   0  0  0  0  0  0  0  0  0  0  0  0
    9.9527    9.8410   23.4105 C   0  0  0  0  0  0  0  0  0  0  0  0
  1  2  1  0
  2  3  2  0
  2  4  1  0
  4  5  2  0
  5  6  1  0
  6  7  2  0
  7  8  1  0
  8  9  1  0
  9 10  1  0
 10 11  2  0
  7 12  1  0
 12 13  1  0
 12 14  2  0
 14  4  1  0
M  END
>  <distance_score>  (299) 
0.847735

>  <ref_pdb>  (299) 
A1775a

>  <ref_mols>  (299) 
A1775a

>  <alias>  (299) 
None

>  <original SMILES>  (299) 
CC(=O)c1ccc(OCC=O)c(F)c1

>  <inchikey>  (299) 
FQYYQADCSGSGLI-UHFFFAOYSA-N

>  <exports>  (299) 
['/opt/xchem-fragalysis-2/maxwin/2A_HIPPO/hippo/A71EV2A_10_recipes/Recipe_1LPVPY0_poses.sdf']

>  <original ID>  (299) 
FQYYQADCSGSGLI-UHFFFAOYSA-N

>  <energy_score>  (299) 
-10.012925

>  <tags>  (299) 
[]

>  <HIPPO ID>  (299) 
141749

>  <name>  (299) 
FQYYQADCSGSGLI-UHFFFAOYSA-N

$$$$
SIHATXQALYWPPN-UHFFFAOYSA-N
     RDKit          3D

 14 14  0  0  0  0  0  0  0  0999 V2000
   12.4303   12.1389   21.7668 C   0  0  0  0  0  0  0  0  0  0  0  0
   11.6678   10.8919   22.1502 C   0  0  0  0  0  0  0  0  0  0  0  0
   11.8828    9.8011   21.6241 O   0  0  0  0  0  0  0  0  0  0  0  0
   10.6054   11.0123   23.1736 C   0  0  0  0  0  0  0  0  0  0  0  0
    9.8482    9.8841   23.4830 C   0  0  0  0  0  0  0  0  0  0  0  0
    8.8054    9.9929   24.3933 C   0  0  0  0  0  0  0  0  0  0  0  0
    8.5393   11.2080   25.0226 C   0  0  0  0  0  0  0  0  0  0  0  0
    7.5364   11.2039   25.9562 O   0  0  0  0  0  0  0  0  0  0  0  0
    6.4663   12.0820   25.6258 C   0  0  0  0  0  0  0  0  0  0  0  0
    5.3958   11.8368   26.6509 C   0  0  0  0  0  0  0  0  0  0  0  0
    4.9389   12.7183   27.3734 O   0  0  0  0  0  0  0  0  0  0  0  0
    9.3604   12.3194   24.7959 C   0  0  0  0  0  0  0  0  0  0  0  0
    9.1266   13.5561   25.4156 N   0  0  0  0  0  0  0  0  0  0  0  0
   10.3404   12.2308   23.8095 C   0  0  0  0  0  0  0  0  0  0  0  0
  1  2  1  0
  2  3  2  0
  2  4  1  0
  4  5  2  0
  5  6  1  0
  6  7  2  0
  7  8  1  0
  8  9  1  0
  9 10  1  0
 10 11  2  0
  7 12  1  0
 12 13  1  0
 12 14  2  0
 14  4  1  0
M  END
>  <distance_score>  (300) 
0.55554

>  <ref_pdb>  (300) 
A1775a

>  <ref_mols>  (300) 
A1775a

>  <alias>  (300) 
None

>  <original SMILES>  (300) 
CC(=O)c1ccc(OCC=O)c(N)c1

>  <inchikey>  (300) 
SIHATXQALYWPPN-UHFFFAOYSA-N

>  <exports>  (300) 
['/opt/xchem-fragalysis-2/maxwin/2A_HIPPO/hippo/A71EV2A_10_recipes/Recipe_1LPVPY0_poses.sdf']

>  <original ID>  (300) 
SIHATXQALYWPPN-UHFFFAOYSA-N

>  <energy_score>  (300) 
-21.273159

>  <tags>  (300) 
[]

>  <HIPPO ID>  (300) 
141751

>  <name>  (300) 
SIHATXQALYWPPN-UHFFFAOYSA-N

$$$$
KKIXEWGIOYISMC-UHFFFAOYSA-N
     RDKit          3D

 14 14  0  0  0  0  0  0  0  0999 V2000
   13.6557   11.6195   20.5893 C   0  0  0  0  0  0  0  0  0  0  0  0
   12.5820   11.9891   21.6212 C   0  0  0  0  0  0  0  0  0  0  0  0
   11.7654   10.7718   22.0441 C   0  0  0  0  0  0  0  0  0  0  0  0
   11.9229    9.6586   21.5420 O   0  0  0  0  0  0  0  0  0  0  0  0
   10.7038   10.9164   23.0692 C   0  0  0  0  0  0  0  0  0  0  0  0
   10.3687   12.1374   23.6609 C   0  0  0  0  0  0  0  0  0  0  0  0
    9.2931   12.2123   24.5557 C   0  0  0  0  0  0  0  0  0  0  0  0
    8.5444   11.0732   24.8416 C   0  0  0  0  0  0  0  0  0  0  0  0
    7.4572   10.9981   25.6603 O   0  0  0  0  0  0  0  0  0  0  0  0
    6.8051   12.2167   25.9745 C   0  0  0  0  0  0  0  0  0  0  0  0
    5.5358   11.8287   26.6826 C   0  0  0  0  0  0  0  0  0  0  0  0
    4.4457   12.3440   26.4560 O   0  0  0  0  0  0  0  0  0  0  0  0
    8.9060    9.8571   24.2709 C   0  0  0  0  0  0  0  0  0  0  0  0
    9.9802    9.7697   23.3990 C   0  0  0  0  0  0  0  0  0  0  0  0
  1  2  1  0
  2  3  1  0
  3  4  2  0
  3  5  1  0
  5  6  2  0
  6  7  1  0
  7  8  2  0
  8  9  1  0
  9 10  1  0
 10 11  1  0
 11 12  2  0
  8 13  1  0
 13 14  2  0
 14  5  1  0
M  END
>  <distance_score>  (301) 
0.361069

>  <ref_pdb>  (301) 
A1775a

>  <ref_mols>  (301) 
A1775a

>  <alias>  (301) 
None

>  <original SMILES>  (301) 
CCC(=O)c1ccc(OCC=O)cc1

>  <inchikey>  (301) 
KKIXEWGIOYISMC-UHFFFAOYSA-N

>  <exports>  (301) 
['/opt/xchem-fragalysis-2/maxwin/2A_HIPPO/hippo/A71EV2A_10_recipes/Recipe_1LPVPY0_poses.sdf']

>  <original ID>  (301) 
KKIXEWGIOYISMC-UHFFFAOYSA-N

>  <energy_score>  (301) 
-14.409455

>  <tags>  (301) 
[]

>  <HIPPO ID>  (301) 
141754

>  <name>  (301) 
KKIXEWGIOYISMC-UHFFFAOYSA-N

$$$$
WPDWLXRMNQALMF-UHFFFAOYSA-N
     RDKit          3D

 14 14  0  0  0  0  0  0  0  0999 V2000
    5.1282   11.1364   27.3366 O   0  0  0  0  0  0  0  0  0  0  0  0
    5.3739   12.0848   26.5989 C   0  0  0  0  0  0  0  0  0  0  0  0
    6.6487   12.2623   25.8025 C   0  0  0  0  0  0  0  0  0  0  0  0
    7.4059   11.0702   25.7366 O   0  0  0  0  0  0  0  0  0  0  0  0
    8.4881   11.1080   24.9057 C   0  0  0  0  0  0  0  0  0  0  0  0
    8.8292    9.8880   24.3321 C   0  0  0  0  0  0  0  0  0  0  0  0
    9.9005    9.7860   23.4568 C   0  0  0  0  0  0  0  0  0  0  0  0
   10.6421   10.9229   23.1351 C   0  0  0  0  0  0  0  0  0  0  0  0
   11.7024   10.7814   22.1095 C   0  0  0  0  0  0  0  0  0  0  0  0
   11.8683    9.6681   21.6118 O   0  0  0  0  0  0  0  0  0  0  0  0
   12.4777   12.0232   21.7058 C   0  0  0  0  0  0  0  0  0  0  0  0
   13.7055   11.5978   20.4874 Cl  0  0  0  0  0  0  0  0  0  0  0  0
   10.3322   12.1454   23.7397 C   0  0  0  0  0  0  0  0  0  0  0  0
    9.2615   12.2331   24.6333 C   0  0  0  0  0  0  0  0  0  0  0  0
  1  2  2  0
  2  3  1  0
  3  4  1  0
  4  5  1  0
  5  6  2  0
  6  7  1  0
  7  8  2  0
  8  9  1  0
  9 10  2  0
  9 11  1  0
 11 12  1  0
  8 13  1  0
 13 14  2  0
 14  5  1  0
M  END
>  <distance_score>  (302) 
0.409047

>  <ref_pdb>  (302) 
A1775a

>  <ref_mols>  (302) 
A1775a

>  <alias>  (302) 
None

>  <original SMILES>  (302) 
O=CCOc1ccc(C(=O)CCl)cc1

>  <inchikey>  (302) 
WPDWLXRMNQALMF-UHFFFAOYSA-N

>  <exports>  (302) 
['/opt/xchem-fragalysis-2/maxwin/2A_HIPPO/hippo/A71EV2A_10_recipes/Recipe_1LPVPY0_poses.sdf']

>  <original ID>  (302) 
WPDWLXRMNQALMF-UHFFFAOYSA-N

>  <energy_score>  (302) 
-10.162519

>  <tags>  (302) 
[]

>  <HIPPO ID>  (302) 
141759

>  <name>  (302) 
WPDWLXRMNQALMF-UHFFFAOYSA-N

$$$$
PQQSNMCRSFPZML-UHFFFAOYSA-N
     RDKit          3D

 14 15  0  0  0  0  0  0  0  0999 V2000
    5.3321   12.7094   27.6387 O   0  0  0  0  0  0  0  0  0  0  0  0
    5.6541   12.0094   26.6824 C   0  0  0  0  0  0  0  0  0  0  0  0
    6.8827   12.2683   25.8526 C   0  0  0  0  0  0  0  0  0  0  0  0
    7.4791   11.0166   25.5583 O   0  0  0  0  0  0  0  0  0  0  0  0
    8.5769   11.0443   24.7413 C   0  0  0  0  0  0  0  0  0  0  0  0
    8.9391    9.7841   24.2331 C   0  0  0  0  0  0  0  0  0  0  0  0
   10.0147    9.6271   23.3706 C   0  0  0  0  0  0  0  0  0  0  0  0
   10.6951   10.7697   23.0235 C   0  0  0  0  0  0  0  0  0  0  0  0
   10.3745   12.0293   23.5090 C   0  0  0  0  0  0  0  0  0  0  0  0
    9.3148   12.1798   24.3912 C   0  0  0  0  0  0  0  0  0  0  0  0
   11.2448   13.0961   22.9208 C   0  0  0  0  0  0  0  0  0  0  0  0
   12.2116   12.3499   22.0085 C   0  0  0  0  0  0  0  0  0  0  0  0
   11.7747   10.9018   22.0698 C   0  0  0  0  0  0  0  0  0  0  0  0
   12.1979    9.9588   21.4246 O   0  0  0  0  0  0  0  0  0  0  0  0
  1  2  2  0
  2  3  1  0
  3  4  1  0
  4  5  1  0
  5  6  2  0
  6  7  1  0
  7  8  2  0
  8  9  1  0
  9 10  2  0
  9 11  1  0
 11 12  1  0
 12 13  1  0
 13 14  2  0
 10  5  1  0
 13  8  1  0
M  END
>  <distance_score>  (303) 
1.130707

>  <ref_pdb>  (303) 
A1775a

>  <ref_mols>  (303) 
A1775a

>  <alias>  (303) 
None

>  <original SMILES>  (303) 
O=CCOc1ccc2c(c1)CCC2=O

>  <inchikey>  (303) 
PQQSNMCRSFPZML-UHFFFAOYSA-N

>  <exports>  (303) 
['/opt/xchem-fragalysis-2/maxwin/2A_HIPPO/hippo/A71EV2A_10_recipes/Recipe_1LPVPY0_poses.sdf']

>  <original ID>  (303) 
PQQSNMCRSFPZML-UHFFFAOYSA-N

>  <energy_score>  (303) 
-13.54929

>  <tags>  (303) 
[]

>  <HIPPO ID>  (303) 
141763

>  <name>  (303) 
PQQSNMCRSFPZML-UHFFFAOYSA-N

$$$$
PARRSGRSMOSSPV-UHFFFAOYSA-N
     RDKit          3D

 14 14  0  0  0  0  0  0  0  0999 V2000
   11.8319    9.6788   21.6436 O   0  0  0  0  0  0  0  0  0  0  0  0
   11.6734   10.7962   22.1349 C   0  0  0  0  0  0  0  0  0  0  0  0
   12.4573   12.0311   21.7243 C   0  0  0  0  0  0  0  0  0  0  0  0
   13.6807   11.5949   20.5042 Cl  0  0  0  0  0  0  0  0  0  0  0  0
   10.6162   10.9512   23.1642 C   0  0  0  0  0  0  0  0  0  0  0  0
    9.8532    9.8255   23.4809 C   0  0  0  0  0  0  0  0  0  0  0  0
    8.8016    9.9339   24.3806 C   0  0  0  0  0  0  0  0  0  0  0  0
    8.5052   11.1512   24.9814 C   0  0  0  0  0  0  0  0  0  0  0  0
    7.4799   11.1462   25.8847 O   0  0  0  0  0  0  0  0  0  0  0  0
    6.5265   12.1892   25.6733 C   0  0  0  0  0  0  0  0  0  0  0  0
    5.3246   11.9690   26.5734 C   0  0  0  0  0  0  0  0  0  0  0  0
    5.6834   12.6576   28.3684 Br  0  0  0  0  0  0  0  0  0  0  0  0
    9.2911   12.2667   24.7089 C   0  0  0  0  0  0  0  0  0  0  0  0
   10.3391   12.1725   23.7893 C   0  0  0  0  0  0  0  0  0  0  0  0
  1  2  2  0
  2  3  1  0
  3  4  1  0
  2  5  1  0
  5  6  2  0
  6  7  1  0
  7  8  2  0
  8  9  1  0
  9 10  1  0
 10 11  1  0
 11 12  1  0
  8 13  1  0
 13 14  2  0
 14  5  1  0
M  END
>  <distance_score>  (304) 
0.457618

>  <ref_pdb>  (304) 
A1775a

>  <ref_mols>  (304) 
A1775a

>  <alias>  (304) 
None

>  <original SMILES>  (304) 
O=C(CCl)c1ccc(OCCBr)cc1

>  <inchikey>  (304) 
PARRSGRSMOSSPV-UHFFFAOYSA-N

>  <exports>  (304) 
['/opt/xchem-fragalysis-2/maxwin/2A_HIPPO/hippo/A71EV2A_10_recipes/Recipe_1LPVPY0_poses.sdf']

>  <original ID>  (304) 
PARRSGRSMOSSPV-UHFFFAOYSA-N

>  <energy_score>  (304) 
-6.095976

>  <tags>  (304) 
[]

>  <HIPPO ID>  (304) 
141767

>  <name>  (304) 
PARRSGRSMOSSPV-UHFFFAOYSA-N

$$$$
LLINVKTVVFKUON-UHFFFAOYSA-N
     RDKit          3D

 14 14  0  0  0  0  0  0  0  0999 V2000
   12.4669   12.1301   21.7247 C   0  0  0  0  0  0  0  0  0  0  0  0
   11.7083   10.8882   22.1286 C   0  0  0  0  0  0  0  0  0  0  0  0
   11.9096    9.7952   21.6024 O   0  0  0  0  0  0  0  0  0  0  0  0
   10.6634   11.0226   23.1673 C   0  0  0  0  0  0  0  0  0  0  0  0
   10.4413   12.2386   23.8255 C   0  0  0  0  0  0  0  0  0  0  0  0
    9.4242   12.3441   24.7659 C   0  0  0  0  0  0  0  0  0  0  0  0
    8.6154   11.2438   25.0221 C   0  0  0  0  0  0  0  0  0  0  0  0
    7.6476   11.2952   25.9805 O   0  0  0  0  0  0  0  0  0  0  0  0
    6.5673   12.1456   25.5957 C   0  0  0  0  0  0  0  0  0  0  0  0
    5.5595   12.2001   26.7256 C   0  0  0  0  0  0  0  0  0  0  0  0
    4.9314   10.8931   26.8808 C   0  0  0  0  0  0  0  0  0  0  0  0
    4.4213    9.8589   26.9919 N   0  0  0  0  0  0  0  0  0  0  0  0
    8.8446   10.0283   24.3877 C   0  0  0  0  0  0  0  0  0  0  0  0
    9.8737    9.9101   23.4627 C   0  0  0  0  0  0  0  0  0  0  0  0
  1  2  1  0
  2  3  2  0
  2  4  1  0
  4  5  2  0
  5  6  1  0
  6  7  2  0
  7  8  1  0
  8  9  1  0
  9 10  1  0
 10 11  1  0
 11 12  3  0
  7 13  1  0
 13 14  2  0
 14  4  1  0
M  END
>  <distance_score>  (305) 
0.537623

>  <ref_pdb>  (305) 
A1775a

>  <ref_mols>  (305) 
A1775a

>  <alias>  (305) 
None

>  <original SMILES>  (305) 
CC(=O)c1ccc(OCCC#N)cc1

>  <inchikey>  (305) 
LLINVKTVVFKUON-UHFFFAOYSA-N

>  <exports>  (305) 
['/opt/xchem-fragalysis-2/maxwin/2A_HIPPO/hippo/A71EV2A_10_recipes/Recipe_1LPVPY0_poses.sdf']

>  <original ID>  (305) 
LLINVKTVVFKUON-UHFFFAOYSA-N

>  <energy_score>  (305) 
-88.234325

>  <tags>  (305) 
[]

>  <HIPPO ID>  (305) 
141771

>  <name>  (305) 
LLINVKTVVFKUON-UHFFFAOYSA-N

$$$$
DNPBHMIHBASKKP-UHFFFAOYSA-N
     RDKit          3D

 14 14  0  0  0  0  0  0  0  0999 V2000
    5.5006   10.0880   28.7032 C   0  0  0  0  0  0  0  0  0  0  0  0
    5.4872   10.9526   27.8705 C   0  0  0  0  0  0  0  0  0  0  0  0
    5.4467   11.9730   26.8134 C   0  0  0  0  0  0  0  0  0  0  0  0
    6.8202   12.2152   26.2001 C   0  0  0  0  0  0  0  0  0  0  0  0
    7.3111   11.0014   25.6361 O   0  0  0  0  0  0  0  0  0  0  0  0
    8.4541   11.0723   24.8978 C   0  0  0  0  0  0  0  0  0  0  0  0
    9.2333   12.2061   24.6997 C   0  0  0  0  0  0  0  0  0  0  0  0
   10.3238   12.1549   23.8324 C   0  0  0  0  0  0  0  0  0  0  0  0
   10.6471   10.9609   23.1789 C   0  0  0  0  0  0  0  0  0  0  0  0
   11.7091   10.8934   22.1527 C   0  0  0  0  0  0  0  0  0  0  0  0
   12.4261   12.1700   21.7894 C   0  0  0  0  0  0  0  0  0  0  0  0
   11.9518    9.8224   21.5983 O   0  0  0  0  0  0  0  0  0  0  0  0
    9.9153    9.8061   23.4379 C   0  0  0  0  0  0  0  0  0  0  0  0
    8.8216    9.8734   24.2887 C   0  0  0  0  0  0  0  0  0  0  0  0
  1  2  3  0
  2  3  1  0
  3  4  1  0
  4  5  1  0
  5  6  1  0
  6  7  2  0
  7  8  1  0
  8  9  2  0
  9 10  1  0
 10 11  1  0
 10 12  2  0
  9 13  1  0
 13 14  2  0
 14  6  1  0
M  END
>  <distance_score>  (306) 
0.852365

>  <ref_pdb>  (306) 
A1775a

>  <ref_mols>  (306) 
A1775a

>  <alias>  (306) 
None

>  <original SMILES>  (306) 
C#CCCOc1ccc(C(C)=O)cc1

>  <inchikey>  (306) 
DNPBHMIHBASKKP-UHFFFAOYSA-N

>  <exports>  (306) 
['/opt/xchem-fragalysis-2/maxwin/2A_HIPPO/hippo/A71EV2A_10_recipes/Recipe_1LPVPY0_poses.sdf']

>  <original ID>  (306) 
DNPBHMIHBASKKP-UHFFFAOYSA-N

>  <energy_score>  (306) 
-159.400178

>  <tags>  (306) 
[]

>  <HIPPO ID>  (306) 
141775

>  <name>  (306) 
DNPBHMIHBASKKP-UHFFFAOYSA-N

$$$$
YYLCJWIQUFHYMY-UHFFFAOYSA-N
     RDKit          3D

 14 14  0  0  0  0  0  0  0  0999 V2000
    4.3763   11.8881   28.9399 C   0  0  0  0  0  0  0  0  0  0  0  0
    5.6561   12.0058   28.1272 C   0  0  0  0  0  0  0  0  0  0  0  0
    5.3541   12.0031   26.6283 C   0  0  0  0  0  0  0  0  0  0  0  0
    6.6035   12.2265   25.7865 C   0  0  0  0  0  0  0  0  0  0  0  0
    7.4177   11.0570   25.8153 O   0  0  0  0  0  0  0  0  0  0  0  0
    8.4874   11.0996   24.9650 C   0  0  0  0  0  0  0  0  0  0  0  0
    8.8212    9.8976   24.3470 C   0  0  0  0  0  0  0  0  0  0  0  0
    9.8887    9.8238   23.4614 C   0  0  0  0  0  0  0  0  0  0  0  0
   10.6273   10.9716   23.1820 C   0  0  0  0  0  0  0  0  0  0  0  0
   11.6897   10.8890   22.1560 C   0  0  0  0  0  0  0  0  0  0  0  0
   12.4199   12.1580   21.7874 C   0  0  0  0  0  0  0  0  0  0  0  0
   11.9246    9.8123   21.6098 O   0  0  0  0  0  0  0  0  0  0  0  0
   10.3240   12.1723   23.8320 C   0  0  0  0  0  0  0  0  0  0  0  0
    9.2623   12.2313   24.7319 C   0  0  0  0  0  0  0  0  0  0  0  0
  1  2  1  0
  2  3  1  0
  3  4  1  0
  4  5  1  0
  5  6  1  0
  6  7  2  0
  7  8  1  0
  8  9  2  0
  9 10  1  0
 10 11  1  0
 10 12  2  0
  9 13  1  0
 13 14  2  0
 14  6  1  0
M  END
>  <distance_score>  (307) 
0.510234

>  <ref_pdb>  (307) 
A1775a

>  <ref_mols>  (307) 
A1775a

>  <alias>  (307) 
None

>  <original SMILES>  (307) 
CCCCOc1ccc(C(C)=O)cc1

>  <inchikey>  (307) 
YYLCJWIQUFHYMY-UHFFFAOYSA-N

>  <exports>  (307) 
['/opt/xchem-fragalysis-2/maxwin/2A_HIPPO/hippo/A71EV2A_10_recipes/Recipe_1LPVPY0_poses.sdf']

>  <original ID>  (307) 
YYLCJWIQUFHYMY-UHFFFAOYSA-N

>  <energy_score>  (307) 
-11.838442

>  <tags>  (307) 
[]

>  <HIPPO ID>  (307) 
141776

>  <name>  (307) 
YYLCJWIQUFHYMY-UHFFFAOYSA-N

$$$$
ATGKPXGZTZBPIB-UHFFFAOYSA-N
     RDKit          3D

 14 14  0  0  0  0  0  0  0  0999 V2000
   12.4835   12.1660   21.7339 C   0  0  0  0  0  0  0  0  0  0  0  0
   11.7527   10.9026   22.1054 C   0  0  0  0  0  0  0  0  0  0  0  0
   11.9821    9.8240   21.5616 O   0  0  0  0  0  0  0  0  0  0  0  0
   10.6935   10.9867   23.1299 C   0  0  0  0  0  0  0  0  0  0  0  0
   10.3713   12.1887   23.7733 C   0  0  0  0  0  0  0  0  0  0  0  0
    9.2915   12.2485   24.6556 C   0  0  0  0  0  0  0  0  0  0  0  0
    8.5216   11.1126   24.8795 C   0  0  0  0  0  0  0  0  0  0  0  0
    7.4086   11.0395   25.6696 O   0  0  0  0  0  0  0  0  0  0  0  0
    6.8570   12.2718   26.1052 C   0  0  0  0  0  0  0  0  0  0  0  0
    5.5791   12.0178   26.8753 C   0  0  0  0  0  0  0  0  0  0  0  0
    5.1804   13.1902   27.4368 F   0  0  0  0  0  0  0  0  0  0  0  0
    8.8899    9.9202   24.2552 C   0  0  0  0  0  0  0  0  0  0  0  0
    8.1510    8.8279   24.4430 F   0  0  0  0  0  0  0  0  0  0  0  0
    9.9664    9.8350   23.3975 C   0  0  0  0  0  0  0  0  0  0  0  0
  1  2  1  0
  2  3  2  0
  2  4  1  0
  4  5  2  0
  5  6  1  0
  6  7  2  0
  7  8  1  0
  8  9  1  0
  9 10  1  0
 10 11  1  0
  7 12  1  0
 12 13  1  0
 12 14  2  0
 14  4  1  0
M  END
>  <distance_score>  (308) 
0.828135

>  <ref_pdb>  (308) 
A1775a

>  <ref_mols>  (308) 
A1775a

>  <alias>  (308) 
None

>  <original SMILES>  (308) 
CC(=O)c1ccc(OCCF)c(F)c1

>  <inchikey>  (308) 
ATGKPXGZTZBPIB-UHFFFAOYSA-N

>  <exports>  (308) 
['/opt/xchem-fragalysis-2/maxwin/2A_HIPPO/hippo/A71EV2A_10_recipes/Recipe_1LPVPY0_poses.sdf']

>  <original ID>  (308) 
ATGKPXGZTZBPIB-UHFFFAOYSA-N

>  <energy_score>  (308) 
-6.452332

>  <tags>  (308) 
[]

>  <HIPPO ID>  (308) 
141778

>  <name>  (308) 
ATGKPXGZTZBPIB-UHFFFAOYSA-N

$$$$
LCOVGPXTXTWUSS-UHFFFAOYSA-N
     RDKit          3D

 14 15  0  0  0  0  0  0  0  0999 V2000
   12.2067    9.9734   21.4026 O   0  0  0  0  0  0  0  0  0  0  0  0
   11.7868   10.9095   22.0599 C   0  0  0  0  0  0  0  0  0  0  0  0
   12.2245   12.3575   22.0133 C   0  0  0  0  0  0  0  0  0  0  0  0
   11.3268   13.0794   23.0120 C   0  0  0  0  0  0  0  0  0  0  0  0
   10.4227   12.0156   23.5507 C   0  0  0  0  0  0  0  0  0  0  0  0
    9.3780   12.1544   24.4515 C   0  0  0  0  0  0  0  0  0  0  0  0
    8.6295   11.0185   24.7738 C   0  0  0  0  0  0  0  0  0  0  0  0
    7.5615   10.9814   25.6265 O   0  0  0  0  0  0  0  0  0  0  0  0
    6.8811   12.2117   25.8384 C   0  0  0  0  0  0  0  0  0  0  0  0
    5.6170   11.9421   26.6296 C   0  0  0  0  0  0  0  0  0  0  0  0
    4.8436   13.0569   26.6181 F   0  0  0  0  0  0  0  0  0  0  0  0
    8.9619    9.7691   24.2213 C   0  0  0  0  0  0  0  0  0  0  0  0
   10.0197    9.6240   23.3366 C   0  0  0  0  0  0  0  0  0  0  0  0
   10.7131   10.7671   23.0181 C   0  0  0  0  0  0  0  0  0  0  0  0
  1  2  2  0
  2  3  1  0
  3  4  1  0
  4  5  1  0
  5  6  2  0
  6  7  1  0
  7  8  1  0
  8  9  1  0
  9 10  1  0
 10 11  1  0
  7 12  2  0
 12 13  1  0
 13 14  2  0
 14  2  1  0
 14  5  1  0
M  END
>  <distance_score>  (309) 
1.125574

>  <ref_pdb>  (309) 
A1775a

>  <ref_mols>  (309) 
A1775a

>  <alias>  (309) 
None

>  <original SMILES>  (309) 
O=C1CCc2cc(OCCF)ccc21

>  <inchikey>  (309) 
LCOVGPXTXTWUSS-UHFFFAOYSA-N

>  <exports>  (309) 
['/opt/xchem-fragalysis-2/maxwin/2A_HIPPO/hippo/A71EV2A_10_recipes/Recipe_1LPVPY0_poses.sdf']

>  <original ID>  (309) 
LCOVGPXTXTWUSS-UHFFFAOYSA-N

>  <energy_score>  (309) 
-23.171053

>  <tags>  (309) 
[]

>  <HIPPO ID>  (309) 
141783

>  <name>  (309) 
LCOVGPXTXTWUSS-UHFFFAOYSA-N

$$$$
ARVBKOZXQOCVGU-UHFFFAOYSA-N
     RDKit          3D

 14 14  0  0  0  0  0  0  0  0999 V2000
   11.8870    9.6629   21.5988 O   0  0  0  0  0  0  0  0  0  0  0  0
   11.7160   10.7747   22.0983 C   0  0  0  0  0  0  0  0  0  0  0  0
   12.4856   12.0207   21.6976 C   0  0  0  0  0  0  0  0  0  0  0  0
   13.7161   11.5997   20.4806 Cl  0  0  0  0  0  0  0  0  0  0  0  0
   10.6553   10.9069   23.1233 C   0  0  0  0  0  0  0  0  0  0  0  0
    9.9201    9.7648   23.4390 C   0  0  0  0  0  0  0  0  0  0  0  0
    8.8380    9.8601   24.3010 C   0  0  0  0  0  0  0  0  0  0  0  0
    8.4817   11.0767   24.8743 C   0  0  0  0  0  0  0  0  0  0  0  0
    7.3694   11.0207   25.6640 O   0  0  0  0  0  0  0  0  0  0  0  0
    6.8456   12.2642   26.1056 C   0  0  0  0  0  0  0  0  0  0  0  0
    5.5791   12.0305   26.9007 C   0  0  0  0  0  0  0  0  0  0  0  0
    5.2223   13.2025   27.4903 F   0  0  0  0  0  0  0  0  0  0  0  0
    9.2505   12.2065   24.6060 C   0  0  0  0  0  0  0  0  0  0  0  0
   10.3317   12.1265   23.7244 C   0  0  0  0  0  0  0  0  0  0  0  0
  1  2  2  0
  2  3  1  0
  3  4  1  0
  2  5  1  0
  5  6  2  0
  6  7  1  0
  7  8  2  0
  8  9  1  0
  9 10  1  0
 10 11  1  0
 11 12  1  0
  8 13  1  0
 13 14  2  0
 14  5  1  0
M  END
>  <distance_score>  (310) 
0.384731

>  <ref_pdb>  (310) 
A1775a

>  <ref_mols>  (310) 
A1775a

>  <alias>  (310) 
None

>  <original SMILES>  (310) 
O=C(CCl)c1ccc(OCCF)cc1

>  <inchikey>  (310) 
ARVBKOZXQOCVGU-UHFFFAOYSA-N

>  <exports>  (310) 
['/opt/xchem-fragalysis-2/maxwin/2A_HIPPO/hippo/A71EV2A_10_recipes/Recipe_1LPVPY0_poses.sdf']

>  <original ID>  (310) 
ARVBKOZXQOCVGU-UHFFFAOYSA-N

>  <energy_score>  (310) 
-22.477242

>  <tags>  (310) 
[]

>  <HIPPO ID>  (310) 
141788

>  <name>  (310) 
ARVBKOZXQOCVGU-UHFFFAOYSA-N

$$$$
YVYVGHPVNHHVFQ-UHFFFAOYSA-N
     RDKit          3D

 14 14  0  0  0  0  0  0  0  0999 V2000
   13.6502   11.6160   20.5942 C   0  0  0  0  0  0  0  0  0  0  0  0
   12.5796   11.9884   21.6281 C   0  0  0  0  0  0  0  0  0  0  0  0
   11.7583   10.7740   22.0540 C   0  0  0  0  0  0  0  0  0  0  0  0
   11.8999    9.6640   21.5406 O   0  0  0  0  0  0  0  0  0  0  0  0
   10.7045   10.9252   23.0867 C   0  0  0  0  0  0  0  0  0  0  0  0
    9.9588    9.7910   23.4123 C   0  0  0  0  0  0  0  0  0  0  0  0
    8.8859    9.8954   24.2864 C   0  0  0  0  0  0  0  0  0  0  0  0
    8.5488   11.1153   24.8650 C   0  0  0  0  0  0  0  0  0  0  0  0
    7.4520   11.0634   25.6765 O   0  0  0  0  0  0  0  0  0  0  0  0
    6.9342   12.3069   26.1411 C   0  0  0  0  0  0  0  0  0  0  0  0
    5.6518   12.0582   26.9135 C   0  0  0  0  0  0  0  0  0  0  0  0
    4.6284   11.9196   26.0296 F   0  0  0  0  0  0  0  0  0  0  0  0
    9.3233   12.2390   24.5826 C   0  0  0  0  0  0  0  0  0  0  0  0
   10.3957   12.1482   23.6867 C   0  0  0  0  0  0  0  0  0  0  0  0
  1  2  1  0
  2  3  1  0
  3  4  2  0
  3  5  1  0
  5  6  2  0
  6  7  1  0
  7  8  2  0
  8  9  1  0
  9 10  1  0
 10 11  1  0
 11 12  1  0
  8 13  1  0
 13 14  2  0
 14  5  1  0
M  END
>  <distance_score>  (311) 
0.366115

>  <ref_pdb>  (311) 
A1775a

>  <ref_mols>  (311) 
A1775a

>  <alias>  (311) 
None

>  <original SMILES>  (311) 
CCC(=O)c1ccc(OCCF)cc1

>  <inchikey>  (311) 
YVYVGHPVNHHVFQ-UHFFFAOYSA-N

>  <exports>  (311) 
['/opt/xchem-fragalysis-2/maxwin/2A_HIPPO/hippo/A71EV2A_10_recipes/Recipe_1LPVPY0_poses.sdf']

>  <original ID>  (311) 
YVYVGHPVNHHVFQ-UHFFFAOYSA-N

>  <energy_score>  (311) 
-5.203392

>  <tags>  (311) 
[]

>  <HIPPO ID>  (311) 
141792

>  <name>  (311) 
YVYVGHPVNHHVFQ-UHFFFAOYSA-N

$$$$
KXEPKFAVJFJABZ-UHFFFAOYSA-N
     RDKit          3D

 14 14  0  0  0  0  0  0  0  0999 V2000
   12.4676   12.1406   21.7360 C   0  0  0  0  0  0  0  0  0  0  0  0
   11.7046   10.8924   22.1077 C   0  0  0  0  0  0  0  0  0  0  0  0
   11.9279    9.8042   21.5795 O   0  0  0  0  0  0  0  0  0  0  0  0
   10.6348   11.0053   23.1218 C   0  0  0  0  0  0  0  0  0  0  0  0
    9.9041    9.8631   23.4376 C   0  0  0  0  0  0  0  0  0  0  0  0
    8.8652    9.9564   24.3499 C   0  0  0  0  0  0  0  0  0  0  0  0
    8.5775   11.1680   24.9781 C   0  0  0  0  0  0  0  0  0  0  0  0
    7.5929   11.1124   25.9223 O   0  0  0  0  0  0  0  0  0  0  0  0
    6.5324   12.0534   25.7497 C   0  0  0  0  0  0  0  0  0  0  0  0
    5.3360   11.5182   26.5096 C   0  0  0  0  0  0  0  0  0  0  0  0
    5.6220   11.5111   27.8399 F   0  0  0  0  0  0  0  0  0  0  0  0
    9.3630   12.3003   24.7340 C   0  0  0  0  0  0  0  0  0  0  0  0
    9.1107   13.5372   25.3508 N   0  0  0  0  0  0  0  0  0  0  0  0
   10.3405   12.2252   23.7436 C   0  0  0  0  0  0  0  0  0  0  0  0
  1  2  1  0
  2  3  2  0
  2  4  1  0
  4  5  2  0
  5  6  1  0
  6  7  2  0
  7  8  1  0
  8  9  1  0
  9 10  1  0
 10 11  1  0
  7 12  1  0
 12 13  1  0
 12 14  2  0
 14  4  1  0
M  END
>  <distance_score>  (312) 
0.540178

>  <ref_pdb>  (312) 
A1775a

>  <ref_mols>  (312) 
A1775a

>  <alias>  (312) 
None

>  <original SMILES>  (312) 
CC(=O)c1ccc(OCCF)c(N)c1

>  <inchikey>  (312) 
KXEPKFAVJFJABZ-UHFFFAOYSA-N

>  <exports>  (312) 
['/opt/xchem-fragalysis-2/maxwin/2A_HIPPO/hippo/A71EV2A_10_recipes/Recipe_1LPVPY0_poses.sdf']

>  <original ID>  (312) 
KXEPKFAVJFJABZ-UHFFFAOYSA-N

>  <energy_score>  (312) 
-17.241421

>  <tags>  (312) 
[]

>  <HIPPO ID>  (312) 
141795

>  <name>  (312) 
KXEPKFAVJFJABZ-UHFFFAOYSA-N

$$$$
BXQVDIAKTINJPF-UHFFFAOYSA-N
     RDKit          3D

 14 14  0  0  0  0  0  0  0  0999 V2000
    4.4614   11.7823   27.2754 N   0  0  0  0  0  0  0  0  0  0  0  0
    5.4518   11.9739   26.7013 C   0  0  0  0  0  0  0  0  0  0  0  0
    6.7088   12.2401   25.9904 C   0  0  0  0  0  0  0  0  0  0  0  0
    7.3632   11.0116   25.6845 O   0  0  0  0  0  0  0  0  0  0  0  0
    8.4667   11.0792   24.8867 C   0  0  0  0  0  0  0  0  0  0  0  0
    8.8288    9.8642   24.3132 C   0  0  0  0  0  0  0  0  0  0  0  0
    9.9096    9.7728   23.4499 C   0  0  0  0  0  0  0  0  0  0  0  0
   10.6408   10.9170   23.1347 C   0  0  0  0  0  0  0  0  0  0  0  0
   11.7038   10.7833   22.1110 C   0  0  0  0  0  0  0  0  0  0  0  0
   11.8751    9.6710   21.6124 O   0  0  0  0  0  0  0  0  0  0  0  0
   12.4750   12.0275   21.7094 C   0  0  0  0  0  0  0  0  0  0  0  0
   13.7032   11.6027   20.4899 Cl  0  0  0  0  0  0  0  0  0  0  0  0
   10.3123   12.1353   23.7385 C   0  0  0  0  0  0  0  0  0  0  0  0
    9.2306   12.2122   24.6225 C   0  0  0  0  0  0  0  0  0  0  0  0
  1  2  3  0
  2  3  1  0
  3  4  1  0
  4  5  1  0
  5  6  2  0
  6  7  1  0
  7  8  2  0
  8  9  1  0
  9 10  2  0
  9 11  1  0
 11 12  1  0
  8 13  1  0
 13 14  2  0
 14  5  1  0
M  END
>  <distance_score>  (313) 
0.396493

>  <ref_pdb>  (313) 
A1775a

>  <ref_mols>  (313) 
A1775a

>  <alias>  (313) 
None

>  <original SMILES>  (313) 
N#CCOc1ccc(C(=O)CCl)cc1

>  <inchikey>  (313) 
BXQVDIAKTINJPF-UHFFFAOYSA-N

>  <exports>  (313) 
['/opt/xchem-fragalysis-2/maxwin/2A_HIPPO/hippo/A71EV2A_10_recipes/Recipe_1LPVPY0_poses.sdf']

>  <original ID>  (313) 
BXQVDIAKTINJPF-UHFFFAOYSA-N

>  <energy_score>  (313) 
-18.283004

>  <tags>  (313) 
[]

>  <HIPPO ID>  (313) 
141800

>  <name>  (313) 
BXQVDIAKTINJPF-UHFFFAOYSA-N

$$$$
JLHLVJUOFGCEEV-UHFFFAOYSA-N
     RDKit          3D

 14 15  0  0  0  0  0  0  0  0999 V2000
    4.5944   11.7785   27.2101 N   0  0  0  0  0  0  0  0  0  0  0  0
    5.5682   11.9614   26.6050 C   0  0  0  0  0  0  0  0  0  0  0  0
    6.8052   12.2166   25.8524 C   0  0  0  0  0  0  0  0  0  0  0  0
    7.4654   10.9847   25.5713 O   0  0  0  0  0  0  0  0  0  0  0  0
    8.5606   11.0314   24.7549 C   0  0  0  0  0  0  0  0  0  0  0  0
    8.9287    9.7774   24.2343 C   0  0  0  0  0  0  0  0  0  0  0  0
   10.0049    9.6312   23.3713 C   0  0  0  0  0  0  0  0  0  0  0  0
   10.6820   10.7788   23.0372 C   0  0  0  0  0  0  0  0  0  0  0  0
   10.3576   12.0325   23.5376 C   0  0  0  0  0  0  0  0  0  0  0  0
    9.2956   12.1723   24.4206 C   0  0  0  0  0  0  0  0  0  0  0  0
   11.2335   13.1047   22.9672 C   0  0  0  0  0  0  0  0  0  0  0  0
   12.1930   12.3716   22.0360 C   0  0  0  0  0  0  0  0  0  0  0  0
   11.7627   10.9213   22.0862 C   0  0  0  0  0  0  0  0  0  0  0  0
   12.1916    9.9844   21.4359 O   0  0  0  0  0  0  0  0  0  0  0  0
  1  2  3  0
  2  3  1  0
  3  4  1  0
  4  5  1  0
  5  6  2  0
  6  7  1  0
  7  8  2  0
  8  9  1  0
  9 10  2  0
  9 11  1  0
 11 12  1  0
 12 13  1  0
 13 14  2  0
 10  5  1  0
 13  8  1  0
M  END
>  <distance_score>  (314) 
1.145305

>  <ref_pdb>  (314) 
A1775a

>  <ref_mols>  (314) 
A1775a

>  <alias>  (314) 
None

>  <original SMILES>  (314) 
N#CCOc1ccc2c(c1)CCC2=O

>  <inchikey>  (314) 
JLHLVJUOFGCEEV-UHFFFAOYSA-N

>  <exports>  (314) 
['/opt/xchem-fragalysis-2/maxwin/2A_HIPPO/hippo/A71EV2A_10_recipes/Recipe_1LPVPY0_poses.sdf']

>  <original ID>  (314) 
JLHLVJUOFGCEEV-UHFFFAOYSA-N

>  <energy_score>  (314) 
-12.63163

>  <tags>  (314) 
[]

>  <HIPPO ID>  (314) 
141804

>  <name>  (314) 
JLHLVJUOFGCEEV-UHFFFAOYSA-N

$$$$
YZRYMCIUQSUION-UHFFFAOYSA-N
     RDKit          3D

 14 14  0  0  0  0  0  0  0  0999 V2000
   12.4257   12.1728   21.7974 C   0  0  0  0  0  0  0  0  0  0  0  0
   11.6982   10.9008   22.1550 C   0  0  0  0  0  0  0  0  0  0  0  0
   11.9393    9.8264   21.6075 O   0  0  0  0  0  0  0  0  0  0  0  0
   10.6261   10.9732   23.1699 C   0  0  0  0  0  0  0  0  0  0  0  0
    9.9148    9.8094   23.4560 C   0  0  0  0  0  0  0  0  0  0  0  0
    8.8213    9.8675   24.3108 C   0  0  0  0  0  0  0  0  0  0  0  0
    8.4294   11.0691   24.8988 C   0  0  0  0  0  0  0  0  0  0  0  0
    7.3090   10.9768   25.6738 O   0  0  0  0  0  0  0  0  0  0  0  0
    6.6980   12.2017   26.0816 C   0  0  0  0  0  0  0  0  0  0  0  0
    5.4268   11.9250   26.7624 C   0  0  0  0  0  0  0  0  0  0  0  0
    4.4259   11.7236   27.3146 N   0  0  0  0  0  0  0  0  0  0  0  0
    9.1863   12.2108   24.6485 C   0  0  0  0  0  0  0  0  0  0  0  0
    8.8821   13.3846   25.2185 F   0  0  0  0  0  0  0  0  0  0  0  0
   10.2747   12.1753   23.7871 C   0  0  0  0  0  0  0  0  0  0  0  0
  1  2  1  0
  2  3  2  0
  2  4  1  0
  4  5  2  0
  5  6  1  0
  6  7  2  0
  7  8  1  0
  8  9  1  0
  9 10  1  0
 10 11  3  0
  7 12  1  0
 12 13  1  0
 12 14  2  0
 14  4  1  0
M  END
>  <distance_score>  (315) 
0.501586

>  <ref_pdb>  (315) 
A1775a

>  <ref_mols>  (315) 
A1775a

>  <alias>  (315) 
None

>  <original SMILES>  (315) 
CC(=O)c1ccc(OCC#N)c(F)c1

>  <inchikey>  (315) 
YZRYMCIUQSUION-UHFFFAOYSA-N

>  <exports>  (315) 
['/opt/xchem-fragalysis-2/maxwin/2A_HIPPO/hippo/A71EV2A_10_recipes/Recipe_1LPVPY0_poses.sdf']

>  <original ID>  (315) 
YZRYMCIUQSUION-UHFFFAOYSA-N

>  <energy_score>  (315) 
-15.064278

>  <tags>  (315) 
[]

>  <HIPPO ID>  (315) 
141830

>  <name>  (315) 
YZRYMCIUQSUION-UHFFFAOYSA-N

$$$$
MQYAEPIRWQPRAH-UHFFFAOYSA-N
     RDKit          3D

 14 14  0  0  0  0  0  0  0  0999 V2000
   12.5050   12.1003   21.7111 C   0  0  0  0  0  0  0  0  0  0  0  0
   11.7397   10.8512   22.0830 C   0  0  0  0  0  0  0  0  0  0  0  0
   11.9661    9.7617   21.5608 O   0  0  0  0  0  0  0  0  0  0  0  0
   10.6535   10.9651   23.0788 C   0  0  0  0  0  0  0  0  0  0  0  0
    9.9488    9.8217   23.4337 C   0  0  0  0  0  0  0  0  0  0  0  0
    8.8798    9.9320   24.3118 C   0  0  0  0  0  0  0  0  0  0  0  0
    8.4977   11.1671   24.8477 C   0  0  0  0  0  0  0  0  0  0  0  0
    7.4320   11.0657   25.6996 O   0  0  0  0  0  0  0  0  0  0  0  0
    6.6825   12.2499   25.9584 C   0  0  0  0  0  0  0  0  0  0  0  0
    5.4351   11.9121   26.6580 C   0  0  0  0  0  0  0  0  0  0  0  0
    4.4575   11.6713   27.2365 N   0  0  0  0  0  0  0  0  0  0  0  0
    9.1986   12.3251   24.4814 C   0  0  0  0  0  0  0  0  0  0  0  0
    9.0009   13.5853   25.0931 N   0  0  0  0  0  0  0  0  0  0  0  0
   10.2964   12.2010   23.6233 C   0  0  0  0  0  0  0  0  0  0  0  0
  1  2  1  0
  2  3  2  0
  2  4  1  0
  4  5  2  0
  5  6  1  0
  6  7  2  0
  7  8  1  0
  8  9  1  0
  9 10  1  0
 10 11  3  0
  7 12  1  0
 12 13  1  0
 12 14  2  0
 14  4  1  0
M  END
>  <distance_score>  (316) 
0.466525

>  <ref_pdb>  (316) 
A1775a

>  <ref_mols>  (316) 
A1775a

>  <alias>  (316) 
None

>  <original SMILES>  (316) 
CC(=O)c1ccc(OCC#N)c(N)c1

>  <inchikey>  (316) 
MQYAEPIRWQPRAH-UHFFFAOYSA-N

>  <exports>  (316) 
['/opt/xchem-fragalysis-2/maxwin/2A_HIPPO/hippo/A71EV2A_10_recipes/Recipe_1LPVPY0_poses.sdf']

>  <original ID>  (316) 
MQYAEPIRWQPRAH-UHFFFAOYSA-N

>  <energy_score>  (316) 
-57.828628

>  <tags>  (316) 
[]

>  <HIPPO ID>  (316) 
141832

>  <name>  (316) 
MQYAEPIRWQPRAH-UHFFFAOYSA-N

$$$$
IAUVXBJEUVGIEF-UHFFFAOYSA-N
     RDKit          3D

 14 14  0  0  0  0  0  0  0  0999 V2000
   13.6478   11.6194   20.5969 C   0  0  0  0  0  0  0  0  0  0  0  0
   12.5752   11.9900   21.6300 C   0  0  0  0  0  0  0  0  0  0  0  0
   11.7563   10.7735   22.0524 C   0  0  0  0  0  0  0  0  0  0  0  0
   11.9067    9.6632   21.5425 O   0  0  0  0  0  0  0  0  0  0  0  0
   10.6958   10.9198   23.0789 C   0  0  0  0  0  0  0  0  0  0  0  0
   10.3617   12.1431   23.6660 C   0  0  0  0  0  0  0  0  0  0  0  0
    9.2814   12.2247   24.5547 C   0  0  0  0  0  0  0  0  0  0  0  0
    8.5252   11.0899   24.8398 C   0  0  0  0  0  0  0  0  0  0  0  0
    7.4276   11.0227   25.6469 O   0  0  0  0  0  0  0  0  0  0  0  0
    6.7584   12.2470   25.9364 C   0  0  0  0  0  0  0  0  0  0  0  0
    5.5073   11.9759   26.6576 C   0  0  0  0  0  0  0  0  0  0  0  0
    4.5215   11.7809   27.2388 N   0  0  0  0  0  0  0  0  0  0  0  0
    8.8902    9.8700   24.2787 C   0  0  0  0  0  0  0  0  0  0  0  0
    9.9690    9.7761   23.4119 C   0  0  0  0  0  0  0  0  0  0  0  0
  1  2  1  0
  2  3  1  0
  3  4  2  0
  3  5  1  0
  5  6  2  0
  6  7  1  0
  7  8  2  0
  8  9  1  0
  9 10  1  0
 10 11  1  0
 11 12  3  0
  8 13  1  0
 13 14  2  0
 14  5  1  0
M  END
>  <distance_score>  (317) 
0.364393

>  <ref_pdb>  (317) 
A1775a

>  <ref_mols>  (317) 
A1775a

>  <alias>  (317) 
None

>  <original SMILES>  (317) 
CCC(=O)c1ccc(OCC#N)cc1

>  <inchikey>  (317) 
IAUVXBJEUVGIEF-UHFFFAOYSA-N

>  <exports>  (317) 
['/opt/xchem-fragalysis-2/maxwin/2A_HIPPO/hippo/A71EV2A_10_recipes/Recipe_1LPVPY0_poses.sdf']

>  <original ID>  (317) 
IAUVXBJEUVGIEF-UHFFFAOYSA-N

>  <energy_score>  (317) 
-7.126146

>  <tags>  (317) 
[]

>  <HIPPO ID>  (317) 
141835

>  <name>  (317) 
IAUVXBJEUVGIEF-UHFFFAOYSA-N

$$$$
YCKJPYFSHPWTRA-UHFFFAOYSA-N
     RDKit          3D

 14 14  0  0  0  0  0  0  0  0999 V2000
   12.4660   12.1791   21.7554 C   0  0  0  0  0  0  0  0  0  0  0  0
   11.7355   10.9152   22.1250 C   0  0  0  0  0  0  0  0  0  0  0  0
   11.9643    9.8382   21.5773 O   0  0  0  0  0  0  0  0  0  0  0  0
   10.6762   10.9994   23.1498 C   0  0  0  0  0  0  0  0  0  0  0  0
   10.3556   12.1997   23.7985 C   0  0  0  0  0  0  0  0  0  0  0  0
    9.2781   12.2572   24.6848 C   0  0  0  0  0  0  0  0  0  0  0  0
    8.5088   11.1213   24.9057 C   0  0  0  0  0  0  0  0  0  0  0  0
    7.4099   11.0458   25.7133 O   0  0  0  0  0  0  0  0  0  0  0  0
    6.7413   12.2703   26.0056 C   0  0  0  0  0  0  0  0  0  0  0  0
    5.4658   11.9728   26.7725 C   0  0  0  0  0  0  0  0  0  0  0  0
    5.8790   11.6145   28.6484 Br  0  0  0  0  0  0  0  0  0  0  0  0
    8.8748    9.9308   24.2761 C   0  0  0  0  0  0  0  0  0  0  0  0
    8.1348    8.8383   24.4576 F   0  0  0  0  0  0  0  0  0  0  0  0
    9.9483    9.8479   23.4144 C   0  0  0  0  0  0  0  0  0  0  0  0
  1  2  1  0
  2  3  2  0
  2  4  1  0
  4  5  2  0
  5  6  1  0
  6  7  2  0
  7  8  1  0
  8  9  1  0
  9 10  1  0
 10 11  1  0
  7 12  1  0
 12 13  1  0
 12 14  2  0
 14  4  1  0
M  END
>  <distance_score>  (318) 
0.486032

>  <ref_pdb>  (318) 
A1775a

>  <ref_mols>  (318) 
A1775a

>  <alias>  (318) 
None

>  <original SMILES>  (318) 
CC(=O)c1ccc(OCCBr)c(F)c1

>  <inchikey>  (318) 
YCKJPYFSHPWTRA-UHFFFAOYSA-N

>  <exports>  (318) 
['/opt/xchem-fragalysis-2/maxwin/2A_HIPPO/hippo/A71EV2A_10_recipes/Recipe_1LPVPY0_poses.sdf']

>  <original ID>  (318) 
YCKJPYFSHPWTRA-UHFFFAOYSA-N

>  <energy_score>  (318) 
-17.272304

>  <tags>  (318) 
[]

>  <HIPPO ID>  (318) 
141865

>  <name>  (318) 
YCKJPYFSHPWTRA-UHFFFAOYSA-N

$$$$
IADFYSLRLWUKCF-UHFFFAOYSA-N
     RDKit          3D

 14 14  0  0  0  0  0  0  0  0999 V2000
   13.6435   11.6203   20.6001 C   0  0  0  0  0  0  0  0  0  0  0  0
   12.5726   11.9912   21.6352 C   0  0  0  0  0  0  0  0  0  0  0  0
   11.7554   10.7745   22.0602 C   0  0  0  0  0  0  0  0  0  0  0  0
   11.9040    9.6645   21.5486 O   0  0  0  0  0  0  0  0  0  0  0  0
   10.6980   10.9205   23.0898 C   0  0  0  0  0  0  0  0  0  0  0  0
    9.9636    9.7792   23.4142 C   0  0  0  0  0  0  0  0  0  0  0  0
    8.8793    9.8766   24.2736 C   0  0  0  0  0  0  0  0  0  0  0  0
    8.5177   11.0962   24.8379 C   0  0  0  0  0  0  0  0  0  0  0  0
    7.3972   11.0345   25.6123 O   0  0  0  0  0  0  0  0  0  0  0  0
    6.8500   12.2623   26.0825 C   0  0  0  0  0  0  0  0  0  0  0  0
    5.5124   11.9930   26.7468 C   0  0  0  0  0  0  0  0  0  0  0  0
    5.7519   10.9956   28.4036 Br  0  0  0  0  0  0  0  0  0  0  0  0
    9.2867   12.2253   24.5675 C   0  0  0  0  0  0  0  0  0  0  0  0
   10.3716   12.1420   23.6847 C   0  0  0  0  0  0  0  0  0  0  0  0
  1  2  1  0
  2  3  1  0
  3  4  2  0
  3  5  1  0
  5  6  2  0
  6  7  1  0
  7  8  2  0
  8  9  1  0
  9 10  1  0
 10 11  1  0
 11 12  1  0
  8 13  1  0
 13 14  2  0
 14  5  1  0
M  END
>  <distance_score>  (319) 
0.3613

>  <ref_pdb>  (319) 
A1775a

>  <ref_mols>  (319) 
A1775a

>  <alias>  (319) 
None

>  <original SMILES>  (319) 
CCC(=O)c1ccc(OCCBr)cc1

>  <inchikey>  (319) 
IADFYSLRLWUKCF-UHFFFAOYSA-N

>  <exports>  (319) 
['/opt/xchem-fragalysis-2/maxwin/2A_HIPPO/hippo/A71EV2A_10_recipes/Recipe_1LPVPY0_poses.sdf']

>  <original ID>  (319) 
IADFYSLRLWUKCF-UHFFFAOYSA-N

>  <energy_score>  (319) 
-6.292328

>  <tags>  (319) 
[]

>  <HIPPO ID>  (319) 
141870

>  <name>  (319) 
IADFYSLRLWUKCF-UHFFFAOYSA-N

$$$$
QWQALFCYOHBVPY-UHFFFAOYSA-N
     RDKit          3D

 14 14  0  0  0  0  0  0  0  0999 V2000
   12.6089   12.2197   21.6294 C   0  0  0  0  0  0  0  0  0  0  0  0
   11.8721   10.9832   22.0226 C   0  0  0  0  0  0  0  0  0  0  0  0
   12.0783    9.8995   21.4775 O   0  0  0  0  0  0  0  0  0  0  0  0
   10.8404   11.1048   23.0650 C   0  0  0  0  0  0  0  0  0  0  0  0
   10.5353   12.2955   23.7395 C   0  0  0  0  0  0  0  0  0  0  0  0
    9.4652   12.3420   24.6400 C   0  0  0  0  0  0  0  0  0  0  0  0
    8.6866   11.2085   24.8251 C   0  0  0  0  0  0  0  0  0  0  0  0
    7.5515   11.0994   25.5794 O   0  0  0  0  0  0  0  0  0  0  0  0
    6.9877   12.2671   26.1539 C   0  0  0  0  0  0  0  0  0  0  0  0
    5.5070   12.0621   26.4144 C   0  0  0  0  0  0  0  0  0  0  0  0
    5.1775   10.4720   27.4773 Br  0  0  0  0  0  0  0  0  0  0  0  0
    9.0297   10.0266   24.1531 C   0  0  0  0  0  0  0  0  0  0  0  0
    8.3060    8.8610   24.3434 N   0  0  0  0  0  0  0  0  0  0  0  0
   10.1163    9.9590   23.3128 C   0  0  0  0  0  0  0  0  0  0  0  0
  1  2  1  0
  2  3  2  0
  2  4  1  0
  4  5  2  0
  5  6  1  0
  6  7  2  0
  7  8  1  0
  8  9  1  0
  9 10  1  0
 10 11  1  0
  7 12  1  0
 12 13  1  0
 12 14  2  0
 14  4  1  0
M  END
>  <distance_score>  (320) 
0.824448

>  <ref_pdb>  (320) 
A1775a

>  <ref_mols>  (320) 
A1775a

>  <alias>  (320) 
None

>  <original SMILES>  (320) 
CC(=O)c1ccc(OCCBr)c(N)c1

>  <inchikey>  (320) 
QWQALFCYOHBVPY-UHFFFAOYSA-N

>  <exports>  (320) 
['/opt/xchem-fragalysis-2/maxwin/2A_HIPPO/hippo/A71EV2A_10_recipes/Recipe_1LPVPY0_poses.sdf']

>  <original ID>  (320) 
QWQALFCYOHBVPY-UHFFFAOYSA-N

>  <energy_score>  (320) 
-21.686216

>  <tags>  (320) 
[]

>  <HIPPO ID>  (320) 
141875

>  <name>  (320) 
QWQALFCYOHBVPY-UHFFFAOYSA-N

$$$$
XWXCTPDDNOVDMC-UHFFFAOYSA-N
     RDKit          3D

 14 14  0  0  0  0  0  0  0  0999 V2000
    5.6777   11.9823   26.8433 C   0  0  0  0  0  0  0  0  0  0  0  0
    6.9326   12.2950   26.0525 C   0  0  0  0  0  0  0  0  0  0  0  0
    7.5269   11.0688   25.6573 O   0  0  0  0  0  0  0  0  0  0  0  0
    8.6211   11.1343   24.8418 C   0  0  0  0  0  0  0  0  0  0  0  0
    9.4111   12.2592   24.6200 C   0  0  0  0  0  0  0  0  0  0  0  0
   10.4823   12.1953   23.7195 C   0  0  0  0  0  0  0  0  0  0  0  0
   10.7784   10.9928   23.0671 C   0  0  0  0  0  0  0  0  0  0  0  0
   11.8158   10.8433   22.0293 C   0  0  0  0  0  0  0  0  0  0  0  0
   11.9638    9.7292   21.5263 O   0  0  0  0  0  0  0  0  0  0  0  0
   12.5863   12.0715   21.6167 C   0  0  0  0  0  0  0  0  0  0  0  0
   13.8090   11.6185   20.4093 Cl  0  0  0  0  0  0  0  0  0  0  0  0
   10.0296    9.8574   23.3294 C   0  0  0  0  0  0  0  0  0  0  0  0
    8.9528    9.9519   24.1808 C   0  0  0  0  0  0  0  0  0  0  0  0
    8.1663    8.8552   24.3013 O   0  0  0  0  0  0  0  0  0  0  0  0
  1  2  1  0
  2  3  1  0
  3  4  1  0
  4  5  2  0
  5  6  1  0
  6  7  2  0
  7  8  1  0
  8  9  2  0
  8 10  1  0
 10 11  1  0
  7 12  1  0
 12 13  2  0
 13 14  1  0
 13  4  1  0
M  END
>  <distance_score>  (321) 
0.38903

>  <ref_pdb>  (321) 
A1775a

>  <ref_mols>  (321) 
A1775a

>  <alias>  (321) 
None

>  <original SMILES>  (321) 
CCOc1ccc(C(=O)CCl)cc1O

>  <inchikey>  (321) 
XWXCTPDDNOVDMC-UHFFFAOYSA-N

>  <exports>  (321) 
['/opt/xchem-fragalysis-2/maxwin/2A_HIPPO/hippo/A71EV2A_10_recipes/Recipe_1LPVPY0_poses.sdf']

>  <original ID>  (321) 
XWXCTPDDNOVDMC-UHFFFAOYSA-N

>  <energy_score>  (321) 
-13.821929

>  <tags>  (321) 
[]

>  <HIPPO ID>  (321) 
141946

>  <name>  (321) 
XWXCTPDDNOVDMC-UHFFFAOYSA-N

$$$$
OKDCUVWOFWACSU-UHFFFAOYSA-N
     RDKit          3D

 14 14  0  0  0  0  0  0  0  0999 V2000
    9.6344    8.3912   23.6305 C   0  0  0  0  0  0  0  0  0  0  0  0
    8.6213    9.1561   24.4662 C   0  0  0  0  0  0  0  0  0  0  0  0
    7.9842   10.3716   24.1229 O   0  0  0  0  0  0  0  0  0  0  0  0
    8.9291   11.3173   24.0032 C   0  0  0  0  0  0  0  0  0  0  0  0
    9.8393   11.1221   23.0143 C   0  0  0  0  0  0  0  0  0  0  0  0
   11.0193   11.7811   23.0473 C   0  0  0  0  0  0  0  0  0  0  0  0
   11.9490   11.2204   22.0597 C   0  0  0  0  0  0  0  0  0  0  0  0
   11.9093   10.0309   21.7487 O   0  0  0  0  0  0  0  0  0  0  0  0
   12.8233   12.2302   21.4603 C   0  0  0  0  0  0  0  0  0  0  0  0
   13.9365   11.5463   20.3028 Cl  0  0  0  0  0  0  0  0  0  0  0  0
   11.1936   12.8377   23.9444 C   0  0  0  0  0  0  0  0  0  0  0  0
   10.1703   13.1454   24.8589 C   0  0  0  0  0  0  0  0  0  0  0  0
    9.0417   12.3445   24.9073 C   0  0  0  0  0  0  0  0  0  0  0  0
    8.0803   12.5127   25.8556 O   0  0  0  0  0  0  0  0  0  0  0  0
  1  2  1  0
  2  3  1  0
  3  4  1  0
  4  5  2  0
  5  6  1  0
  6  7  1  0
  7  8  2  0
  7  9  1  0
  9 10  1  0
  6 11  2  0
 11 12  1  0
 12 13  2  0
 13 14  1  0
 13  4  1  0
M  END
>  <distance_score>  (322) 
1.243405

>  <ref_pdb>  (322) 
A1775a

>  <ref_mols>  (322) 
A1775a

>  <alias>  (322) 
None

>  <original SMILES>  (322) 
CCOc1cc(C(=O)CCl)ccc1O

>  <inchikey>  (322) 
OKDCUVWOFWACSU-UHFFFAOYSA-N

>  <exports>  (322) 
['/opt/xchem-fragalysis-2/maxwin/2A_HIPPO/hippo/A71EV2A_10_recipes/Recipe_1LPVPY0_poses.sdf']

>  <original ID>  (322) 
OKDCUVWOFWACSU-UHFFFAOYSA-N

>  <energy_score>  (322) 
14.705105

>  <tags>  (322) 
[]

>  <HIPPO ID>  (322) 
141947

>  <name>  (322) 
OKDCUVWOFWACSU-UHFFFAOYSA-N

$$$$
OBUGAMBYISEWLC-UHFFFAOYSA-N
     RDKit          3D

 14 14  0  0  0  0  0  0  0  0999 V2000
    5.5562   11.9456   26.9331 C   0  0  0  0  0  0  0  0  0  0  0  0
    6.8196   12.2528   26.1564 C   0  0  0  0  0  0  0  0  0  0  0  0
    7.3815   11.0243   25.7131 O   0  0  0  0  0  0  0  0  0  0  0  0
    8.4878   11.0982   24.9178 C   0  0  0  0  0  0  0  0  0  0  0  0
    8.8329    9.8989   24.3047 C   0  0  0  0  0  0  0  0  0  0  0  0
    9.9149    9.8243   23.4394 C   0  0  0  0  0  0  0  0  0  0  0  0
   10.6739   10.9654   23.1622 C   0  0  0  0  0  0  0  0  0  0  0  0
   11.7246   10.8184   22.1219 C   0  0  0  0  0  0  0  0  0  0  0  0
   11.8743    9.6995   21.6245 O   0  0  0  0  0  0  0  0  0  0  0  0
   12.5103   12.0423   21.6887 C   0  0  0  0  0  0  0  0  0  0  0  0
   13.7220   11.5857   20.4602 Cl  0  0  0  0  0  0  0  0  0  0  0  0
   10.3603   12.1601   23.8199 C   0  0  0  0  0  0  0  0  0  0  0  0
   11.1090   13.2876   23.6339 O   0  0  0  0  0  0  0  0  0  0  0  0
    9.2722   12.2266   24.6966 C   0  0  0  0  0  0  0  0  0  0  0  0
  1  2  1  0
  2  3  1  0
  3  4  1  0
  4  5  2  0
  5  6  1  0
  6  7  2  0
  7  8  1  0
  8  9  2  0
  8 10  1  0
 10 11  1  0
  7 12  1  0
 12 13  1  0
 12 14  2  0
 14  4  1  0
M  END
>  <distance_score>  (323) 
0.407729

>  <ref_pdb>  (323) 
A1775a

>  <ref_mols>  (323) 
A1775a

>  <alias>  (323) 
None

>  <original SMILES>  (323) 
CCOc1ccc(C(=O)CCl)c(O)c1

>  <inchikey>  (323) 
OBUGAMBYISEWLC-UHFFFAOYSA-N

>  <exports>  (323) 
['/opt/xchem-fragalysis-2/maxwin/2A_HIPPO/hippo/A71EV2A_10_recipes/Recipe_1LPUPHX_poses.sdf', '/opt/xchem-fragalysis-2/maxwin/2A_HIPPO/hippo/A71EV2A_10_recipes/Recipe_1LPVPY0_poses.sdf']

>  <original ID>  (323) 
OBUGAMBYISEWLC-UHFFFAOYSA-N

>  <energy_score>  (323) 
-23.989724

>  <tags>  (323) 
[]

>  <HIPPO ID>  (323) 
141950

>  <name>  (323) 
OBUGAMBYISEWLC-UHFFFAOYSA-N

$$$$
WWJWIBDPQFFRRS-UHFFFAOYSA-N
     RDKit          3D

 14 14  0  0  0  0  0  0  0  0999 V2000
    9.8507    8.1660   22.3099 C   0  0  0  0  0  0  0  0  0  0  0  0
    9.4598    8.5506   23.6780 C   0  0  0  0  0  0  0  0  0  0  0  0
   10.4167    9.4847   24.1455 O   0  0  0  0  0  0  0  0  0  0  0  0
    9.9544   10.7428   23.9622 C   0  0  0  0  0  0  0  0  0  0  0  0
    8.8618   11.1380   24.7351 C   0  0  0  0  0  0  0  0  0  0  0  0
    8.3382   12.3929   24.5601 C   0  0  0  0  0  0  0  0  0  0  0  0
    7.2359   12.7820   25.2488 O   0  0  0  0  0  0  0  0  0  0  0  0
    8.9266   13.2705   23.6631 C   0  0  0  0  0  0  0  0  0  0  0  0
   10.0538   12.8901   22.9365 C   0  0  0  0  0  0  0  0  0  0  0  0
   10.5778   11.6032   23.0627 C   0  0  0  0  0  0  0  0  0  0  0  0
   11.6968   11.1472   22.1794 C   0  0  0  0  0  0  0  0  0  0  0  0
   11.8643    9.9638   21.9021 O   0  0  0  0  0  0  0  0  0  0  0  0
   12.5922   12.2218   21.6354 C   0  0  0  0  0  0  0  0  0  0  0  0
   13.7728   11.5603   20.4793 Cl  0  0  0  0  0  0  0  0  0  0  0  0
  1  2  1  0
  2  3  1  0
  3  4  1  0
  4  5  2  0
  5  6  1  0
  6  7  1  0
  6  8  2  0
  8  9  1  0
  9 10  2  0
 10 11  1  0
 11 12  2  0
 11 13  1  0
 13 14  1  0
 10  4  1  0
M  END
>  <distance_score>  (324) 
1.276617

>  <ref_pdb>  (324) 
A1775a

>  <ref_mols>  (324) 
A1775a

>  <alias>  (324) 
None

>  <original SMILES>  (324) 
CCOc1cc(O)ccc1C(=O)CCl

>  <inchikey>  (324) 
WWJWIBDPQFFRRS-UHFFFAOYSA-N

>  <exports>  (324) 
['/opt/xchem-fragalysis-2/maxwin/2A_HIPPO/hippo/A71EV2A_10_recipes/Recipe_1LPUPHX_poses.sdf', '/opt/xchem-fragalysis-2/maxwin/2A_HIPPO/hippo/A71EV2A_10_recipes/Recipe_1LPVPY0_poses.sdf']

>  <original ID>  (324) 
WWJWIBDPQFFRRS-UHFFFAOYSA-N

>  <energy_score>  (324) 
-2.604023

>  <tags>  (324) 
[]

>  <HIPPO ID>  (324) 
141951

>  <name>  (324) 
WWJWIBDPQFFRRS-UHFFFAOYSA-N

$$$$
SAPLPINBKKAUOI-UHFFFAOYSA-N
     RDKit          3D

 14 14  0  0  0  0  0  0  0  0999 V2000
    5.5516   11.8732   26.8560 C   0  0  0  0  0  0  0  0  0  0  0  0
    6.8372   12.2526   26.1486 C   0  0  0  0  0  0  0  0  0  0  0  0
    7.4990   11.0586   25.7604 O   0  0  0  0  0  0  0  0  0  0  0  0
    8.5728   11.1614   24.9188 C   0  0  0  0  0  0  0  0  0  0  0  0
    8.8817    9.9400   24.3062 C   0  0  0  0  0  0  0  0  0  0  0  0
    9.9357    9.8208   23.4119 C   0  0  0  0  0  0  0  0  0  0  0  0
   10.6764   10.9501   23.0897 C   0  0  0  0  0  0  0  0  0  0  0  0
   11.7418   10.8382   22.0704 C   0  0  0  0  0  0  0  0  0  0  0  0
   12.5058   12.0864   21.6883 C   0  0  0  0  0  0  0  0  0  0  0  0
   11.9586    9.7488   21.5435 O   0  0  0  0  0  0  0  0  0  0  0  0
   10.3866   12.1727   23.7001 C   0  0  0  0  0  0  0  0  0  0  0  0
    9.3684   12.2843   24.6512 C   0  0  0  0  0  0  0  0  0  0  0  0
    9.1371   13.4575   25.3231 O   0  0  0  0  0  0  0  0  0  0  0  0
   10.2070   14.4085   25.3213 C   0  0  0  0  0  0  0  0  0  0  0  0
  1  2  1  0
  2  3  1  0
  3  4  1  0
  4  5  2  0
  5  6  1  0
  6  7  2  0
  7  8  1  0
  8  9  1  0
  8 10  2  0
  7 11  1  0
 11 12  2  0
 12 13  1  0
 13 14  1  0
 12  4  1  0
M  END
>  <distance_score>  (325) 
0.445

>  <ref_pdb>  (325) 
A1775a

>  <ref_mols>  (325) 
A1775a

>  <alias>  (325) 
None

>  <original SMILES>  (325) 
CCOc1ccc(C(C)=O)cc1OC

>  <inchikey>  (325) 
SAPLPINBKKAUOI-UHFFFAOYSA-N

>  <exports>  (325) 
['/opt/xchem-fragalysis-2/maxwin/2A_HIPPO/hippo/A71EV2A_10_recipes/Recipe_1LPVPY0_poses.sdf']

>  <original ID>  (325) 
SAPLPINBKKAUOI-UHFFFAOYSA-N

>  <energy_score>  (325) 
-9.544756

>  <tags>  (325) 
[]

>  <HIPPO ID>  (325) 
142017

>  <name>  (325) 
SAPLPINBKKAUOI-UHFFFAOYSA-N

$$$$
ZYHPIBXHGSZGKQ-UHFFFAOYSA-N
     RDKit          3D

 14 14  0  0  0  0  0  0  0  0999 V2000
    5.6479   11.7983   26.7614 C   0  0  0  0  0  0  0  0  0  0  0  0
    6.9343   12.2165   26.0759 C   0  0  0  0  0  0  0  0  0  0  0  0
    7.6468   11.0437   25.7112 O   0  0  0  0  0  0  0  0  0  0  0  0
    8.7021   11.1345   24.8497 C   0  0  0  0  0  0  0  0  0  0  0  0
    8.9711    9.9104   24.2283 C   0  0  0  0  0  0  0  0  0  0  0  0
   10.0106    9.7694   23.3162 C   0  0  0  0  0  0  0  0  0  0  0  0
   10.7968   10.8721   22.9903 C   0  0  0  0  0  0  0  0  0  0  0  0
   11.8400   10.7212   21.9530 C   0  0  0  0  0  0  0  0  0  0  0  0
   11.9660    9.6152   21.4318 O   0  0  0  0  0  0  0  0  0  0  0  0
   12.6642   11.9387   21.5320 C   0  0  0  0  0  0  0  0  0  0  0  0
   13.7449   11.5847   20.5110 C   0  0  0  0  0  0  0  0  0  0  0  0
   10.5627   12.0899   23.6155 C   0  0  0  0  0  0  0  0  0  0  0  0
    9.5363   12.2175   24.5547 C   0  0  0  0  0  0  0  0  0  0  0  0
    9.4817   13.7563   25.3089 Cl  0  0  0  0  0  0  0  0  0  0  0  0
  1  2  1  0
  2  3  1  0
  3  4  1  0
  4  5  2  0
  5  6  1  0
  6  7  2  0
  7  8  1  0
  8  9  2  0
  8 10  1  0
 10 11  1  0
  7 12  1  0
 12 13  2  0
 13 14  1  0
 13  4  1  0
M  END
>  <distance_score>  (326) 
0.341367

>  <ref_pdb>  (326) 
A1775a

>  <ref_mols>  (326) 
A1775a

>  <alias>  (326) 
None

>  <original SMILES>  (326) 
CCOc1ccc(C(=O)CC)cc1Cl

>  <inchikey>  (326) 
ZYHPIBXHGSZGKQ-UHFFFAOYSA-N

>  <exports>  (326) 
['/opt/xchem-fragalysis-2/maxwin/2A_HIPPO/hippo/A71EV2A_10_recipes/Recipe_1LPVPY0_poses.sdf']

>  <original ID>  (326) 
ZYHPIBXHGSZGKQ-UHFFFAOYSA-N

>  <energy_score>  (326) 
-6.204663

>  <tags>  (326) 
[]

>  <HIPPO ID>  (326) 
142032

>  <name>  (326) 
ZYHPIBXHGSZGKQ-UHFFFAOYSA-N

$$$$
NUABJPLWSGHEBM-UHFFFAOYSA-N
     RDKit          3D

 14 14  0  0  0  0  0  0  0  0999 V2000
   12.4274   12.1629   21.7870 C   0  0  0  0  0  0  0  0  0  0  0  0
   11.7035   10.8896   22.1503 C   0  0  0  0  0  0  0  0  0  0  0  0
   11.9430    9.8166   21.5987 O   0  0  0  0  0  0  0  0  0  0  0  0
   10.6392   10.9630   23.1741 C   0  0  0  0  0  0  0  0  0  0  0  0
   10.3149   12.1620   23.8166 C   0  0  0  0  0  0  0  0  0  0  0  0
    9.2331   12.2162   24.6940 C   0  0  0  0  0  0  0  0  0  0  0  0
    8.4624   11.0799   24.9163 C   0  0  0  0  0  0  0  0  0  0  0  0
    7.3437   11.0121   25.6956 O   0  0  0  0  0  0  0  0  0  0  0  0
    6.7873   12.2535   26.1133 C   0  0  0  0  0  0  0  0  0  0  0  0
    5.4627   12.0021   26.8200 C   0  0  0  0  0  0  0  0  0  0  0  0
    5.6418   11.1616   28.0805 C   0  0  0  0  0  0  0  0  0  0  0  0
    4.3677   10.9611   28.7592 N   0  0  0  0  0  0  0  0  0  0  0  0
    8.8248    9.8785   24.3099 C   0  0  0  0  0  0  0  0  0  0  0  0
    9.9103    9.8090   23.4473 C   0  0  0  0  0  0  0  0  0  0  0  0
  1  2  1  0
  2  3  2  0
  2  4  1  0
  4  5  2  0
  5  6  1  0
  6  7  2  0
  7  8  1  0
  8  9  1  0
  9 10  1  0
 10 11  1  0
 11 12  1  0
  7 13  1  0
 13 14  2  0
 14  4  1  0
M  END
>  <distance_score>  (327) 
0.84978

>  <ref_pdb>  (327) 
A1775a

>  <ref_mols>  (327) 
A1775a

>  <alias>  (327) 
None

>  <original SMILES>  (327) 
CC(=O)c1ccc(OCCCN)cc1

>  <inchikey>  (327) 
NUABJPLWSGHEBM-UHFFFAOYSA-N

>  <exports>  (327) 
['/opt/xchem-fragalysis-2/maxwin/2A_HIPPO/hippo/A71EV2A_10_recipes/Recipe_1LPVPY0_poses.sdf']

>  <original ID>  (327) 
NUABJPLWSGHEBM-UHFFFAOYSA-N

>  <energy_score>  (327) 
-21.583006

>  <tags>  (327) 
[]

>  <HIPPO ID>  (327) 
142046

>  <name>  (327) 
NUABJPLWSGHEBM-UHFFFAOYSA-N

$$$$
BDYQERBWLKZMQL-UHFFFAOYSA-N
     RDKit          3D

 14 14  0  0  0  0  0  0  0  0999 V2000
    5.1901   10.9663   27.4997 C   0  0  0  0  0  0  0  0  0  0  0  0
    5.4320   11.9915   26.6705 C   0  0  0  0  0  0  0  0  0  0  0  0
    4.1404   13.3173   26.3823 Br  0  0  0  0  0  0  0  0  0  0  0  0
    6.6962   12.2056   25.8850 C   0  0  0  0  0  0  0  0  0  0  0  0
    7.4243   10.9866   25.7441 O   0  0  0  0  0  0  0  0  0  0  0  0
    8.5100   11.0553   24.9185 C   0  0  0  0  0  0  0  0  0  0  0  0
    9.2701   12.1977   24.6874 C   0  0  0  0  0  0  0  0  0  0  0  0
   10.3381   12.1504   23.7949 C   0  0  0  0  0  0  0  0  0  0  0  0
   10.6593   10.9527   23.1489 C   0  0  0  0  0  0  0  0  0  0  0  0
   11.7222   10.8820   22.1246 C   0  0  0  0  0  0  0  0  0  0  0  0
   12.4469   12.1552   21.7635 C   0  0  0  0  0  0  0  0  0  0  0  0
   11.9619    9.8094   21.5725 O   0  0  0  0  0  0  0  0  0  0  0  0
    9.9353    9.7955   23.4250 C   0  0  0  0  0  0  0  0  0  0  0  0
    8.8625    9.8569   24.3029 C   0  0  0  0  0  0  0  0  0  0  0  0
  1  2  2  0
  2  3  1  0
  2  4  1  0
  4  5  1  0
  5  6  1  0
  6  7  2  0
  7  8  1  0
  8  9  2  0
  9 10  1  0
 10 11  1  0
 10 12  2  0
  9 13  1  0
 13 14  2  0
 14  6  1  0
M  END
>  <distance_score>  (328) 
0.47389

>  <ref_pdb>  (328) 
A1775a

>  <ref_mols>  (328) 
A1775a

>  <alias>  (328) 
None

>  <original SMILES>  (328) 
C=C(Br)COc1ccc(C(C)=O)cc1

>  <inchikey>  (328) 
BDYQERBWLKZMQL-UHFFFAOYSA-N

>  <exports>  (328) 
['/opt/xchem-fragalysis-2/maxwin/2A_HIPPO/hippo/A71EV2A_10_recipes/Recipe_1LPVPY0_poses.sdf']

>  <original ID>  (328) 
BDYQERBWLKZMQL-UHFFFAOYSA-N

>  <energy_score>  (328) 
-11.108085

>  <tags>  (328) 
[]

>  <HIPPO ID>  (328) 
142047

>  <name>  (328) 
BDYQERBWLKZMQL-UHFFFAOYSA-N

$$$$
PPUYXFRSZWNWAM-UHFFFAOYSA-N
     RDKit          3D

 14 15  0  0  0  0  0  0  0  0999 V2000
   12.2024    9.9743   21.4003 O   0  0  0  0  0  0  0  0  0  0  0  0
   11.7865   10.9117   22.0585 C   0  0  0  0  0  0  0  0  0  0  0  0
   12.2291   12.3582   22.0125 C   0  0  0  0  0  0  0  0  0  0  0  0
   11.3540   13.0776   23.0330 C   0  0  0  0  0  0  0  0  0  0  0  0
   10.4378   12.0195   23.5621 C   0  0  0  0  0  0  0  0  0  0  0  0
    9.4017   12.1597   24.4720 C   0  0  0  0  0  0  0  0  0  0  0  0
    8.6497   11.0257   24.7919 C   0  0  0  0  0  0  0  0  0  0  0  0
    7.6027   10.9955   25.6701 O   0  0  0  0  0  0  0  0  0  0  0  0
    6.8358   12.1939   25.7622 C   0  0  0  0  0  0  0  0  0  0  0  0
    5.5853   11.8839   26.5676 C   0  0  0  0  0  0  0  0  0  0  0  0
    4.4088   13.2000   26.4363 Cl  0  0  0  0  0  0  0  0  0  0  0  0
    8.9663    9.7775   24.2290 C   0  0  0  0  0  0  0  0  0  0  0  0
   10.0146    9.6318   23.3336 C   0  0  0  0  0  0  0  0  0  0  0  0
   10.7143   10.7723   23.0185 C   0  0  0  0  0  0  0  0  0  0  0  0
  1  2  2  0
  2  3  1  0
  3  4  1  0
  4  5  1  0
  5  6  2  0
  6  7  1  0
  7  8  1  0
  8  9  1  0
  9 10  1  0
 10 11  1  0
  7 12  2  0
 12 13  1  0
 13 14  2  0
 14  2  1  0
 14  5  1  0
M  END
>  <distance_score>  (329) 
1.126231

>  <ref_pdb>  (329) 
A1775a

>  <ref_mols>  (329) 
A1775a

>  <alias>  (329) 
None

>  <original SMILES>  (329) 
O=C1CCc2cc(OCCCl)ccc21

>  <inchikey>  (329) 
PPUYXFRSZWNWAM-UHFFFAOYSA-N

>  <exports>  (329) 
['/opt/xchem-fragalysis-2/maxwin/2A_HIPPO/hippo/A71EV2A_10_recipes/Recipe_1LPVPY0_poses.sdf']

>  <original ID>  (329) 
PPUYXFRSZWNWAM-UHFFFAOYSA-N

>  <energy_score>  (329) 
-43.10784

>  <tags>  (329) 
[]

>  <HIPPO ID>  (329) 
142048

>  <name>  (329) 
PPUYXFRSZWNWAM-UHFFFAOYSA-N

$$$$
BSVAMGMIOLVIJD-UHFFFAOYSA-N
     RDKit          3D

 14 14  0  0  0  0  0  0  0  0999 V2000
   11.8933    9.6697   21.5806 O   0  0  0  0  0  0  0  0  0  0  0  0
   11.7264   10.7815   22.0814 C   0  0  0  0  0  0  0  0  0  0  0  0
   12.4996   12.0248   21.6824 C   0  0  0  0  0  0  0  0  0  0  0  0
   13.7311   11.6002   20.4686 Cl  0  0  0  0  0  0  0  0  0  0  0  0
   10.6703   10.9164   23.1096 C   0  0  0  0  0  0  0  0  0  0  0  0
    9.9337    9.7742   23.4249 C   0  0  0  0  0  0  0  0  0  0  0  0
    8.8765    9.8633   24.3158 C   0  0  0  0  0  0  0  0  0  0  0  0
    8.5507   11.0758   24.9121 C   0  0  0  0  0  0  0  0  0  0  0  0
    7.5017   11.0259   25.7820 O   0  0  0  0  0  0  0  0  0  0  0  0
    6.6967   12.2007   25.8190 C   0  0  0  0  0  0  0  0  0  0  0  0
    5.4463   11.8849   26.6174 C   0  0  0  0  0  0  0  0  0  0  0  0
    4.2464   13.1702   26.4208 Cl  0  0  0  0  0  0  0  0  0  0  0  0
    9.3095   12.2094   24.6364 C   0  0  0  0  0  0  0  0  0  0  0  0
   10.3645   12.1344   23.7255 C   0  0  0  0  0  0  0  0  0  0  0  0
  1  2  2  0
  2  3  1  0
  3  4  1  0
  2  5  1  0
  5  6  2  0
  6  7  1  0
  7  8  2  0
  8  9  1  0
  9 10  1  0
 10 11  1  0
 11 12  1  0
  8 13  1  0
 13 14  2  0
 14  5  1  0
M  END
>  <distance_score>  (330) 
0.391391

>  <ref_pdb>  (330) 
A1775a

>  <ref_mols>  (330) 
A1775a

>  <alias>  (330) 
None

>  <original SMILES>  (330) 
O=C(CCl)c1ccc(OCCCl)cc1

>  <inchikey>  (330) 
BSVAMGMIOLVIJD-UHFFFAOYSA-N

>  <exports>  (330) 
['/opt/xchem-fragalysis-2/maxwin/2A_HIPPO/hippo/A71EV2A_10_recipes/Recipe_1LPVPY0_poses.sdf']

>  <original ID>  (330) 
BSVAMGMIOLVIJD-UHFFFAOYSA-N

>  <energy_score>  (330) 
-24.628482

>  <tags>  (330) 
[]

>  <HIPPO ID>  (330) 
142051

>  <name>  (330) 
BSVAMGMIOLVIJD-UHFFFAOYSA-N

$$$$
VILHJYWZPMKMMF-UHFFFAOYSA-N
     RDKit          3D

 14 14  0  0  0  0  0  0  0  0999 V2000
   13.6798   11.6150   20.5702 C   0  0  0  0  0  0  0  0  0  0  0  0
   12.6045   11.9852   21.5987 C   0  0  0  0  0  0  0  0  0  0  0  0
   11.7839   10.7706   22.0207 C   0  0  0  0  0  0  0  0  0  0  0  0
   11.9306    9.6598   21.5113 O   0  0  0  0  0  0  0  0  0  0  0  0
   10.7296   10.9188   23.0511 C   0  0  0  0  0  0  0  0  0  0  0  0
   10.4170   12.1420   23.6496 C   0  0  0  0  0  0  0  0  0  0  0  0
    9.3625   12.2220   24.5643 C   0  0  0  0  0  0  0  0  0  0  0  0
    8.6122   11.0863   24.8613 C   0  0  0  0  0  0  0  0  0  0  0  0
    7.5671   11.0350   25.7365 O   0  0  0  0  0  0  0  0  0  0  0  0
    6.7627   12.2094   25.7901 C   0  0  0  0  0  0  0  0  0  0  0  0
    5.5125   11.8821   26.5862 C   0  0  0  0  0  0  0  0  0  0  0  0
    4.3110   13.1704   26.4158 Cl  0  0  0  0  0  0  0  0  0  0  0  0
    8.9429    9.8685   24.2783 C   0  0  0  0  0  0  0  0  0  0  0  0
    9.9985    9.7767   23.3848 C   0  0  0  0  0  0  0  0  0  0  0  0
  1  2  1  0
  2  3  1  0
  3  4  2  0
  3  5  1  0
  5  6  2  0
  6  7  1  0
  7  8  2  0
  8  9  1  0
  9 10  1  0
 10 11  1  0
 11 12  1  0
  8 13  1  0
 13 14  2  0
 14  5  1  0
M  END
>  <distance_score>  (331) 
0.363941

>  <ref_pdb>  (331) 
A1775a

>  <ref_mols>  (331) 
A1775a

>  <alias>  (331) 
None

>  <original SMILES>  (331) 
CCC(=O)c1ccc(OCCCl)cc1

>  <inchikey>  (331) 
VILHJYWZPMKMMF-UHFFFAOYSA-N

>  <exports>  (331) 
['/opt/xchem-fragalysis-2/maxwin/2A_HIPPO/hippo/A71EV2A_10_recipes/Recipe_1LPVPY0_poses.sdf']

>  <original ID>  (331) 
VILHJYWZPMKMMF-UHFFFAOYSA-N

>  <energy_score>  (331) 
-10.899425

>  <tags>  (331) 
[]

>  <HIPPO ID>  (331) 
142078

>  <name>  (331) 
VILHJYWZPMKMMF-UHFFFAOYSA-N

$$$$
POTQPPCMLPYKEX-UHFFFAOYSA-N
     RDKit          3D

 14 14  0  0  0  0  0  0  0  0999 V2000
   12.5771   12.2493   21.6609 C   0  0  0  0  0  0  0  0  0  0  0  0
   11.8274   11.0240   22.0621 C   0  0  0  0  0  0  0  0  0  0  0  0
   12.0371    9.9294   21.5403 O   0  0  0  0  0  0  0  0  0  0  0  0
   10.7900   11.1681   23.0977 C   0  0  0  0  0  0  0  0  0  0  0  0
   10.4708   12.3708   23.7434 C   0  0  0  0  0  0  0  0  0  0  0  0
    9.3971   12.4281   24.6417 C   0  0  0  0  0  0  0  0  0  0  0  0
    8.6469   11.2852   24.8746 C   0  0  0  0  0  0  0  0  0  0  0  0
    7.5470   11.1581   25.6767 O   0  0  0  0  0  0  0  0  0  0  0  0
    6.9464   12.3292   26.2030 C   0  0  0  0  0  0  0  0  0  0  0  0
    5.6995   11.8905   26.9573 C   0  0  0  0  0  0  0  0  0  0  0  0
    5.0854   13.1857   27.9985 Cl  0  0  0  0  0  0  0  0  0  0  0  0
    9.0261   10.0835   24.2662 C   0  0  0  0  0  0  0  0  0  0  0  0
    8.2172    8.9659   24.3633 N   0  0  0  0  0  0  0  0  0  0  0  0
   10.0723   10.0248   23.3723 C   0  0  0  0  0  0  0  0  0  0  0  0
  1  2  1  0
  2  3  2  0
  2  4  1  0
  4  5  2  0
  5  6  1  0
  6  7  2  0
  7  8  1  0
  8  9  1  0
  9 10  1  0
 10 11  1  0
  7 12  1  0
 12 13  1  0
 12 14  2  0
 14  4  1  0
M  END
>  <distance_score>  (332) 
0.543151

>  <ref_pdb>  (332) 
A1775a

>  <ref_mols>  (332) 
A1775a

>  <alias>  (332) 
None

>  <original SMILES>  (332) 
CC(=O)c1ccc(OCCCl)c(N)c1

>  <inchikey>  (332) 
POTQPPCMLPYKEX-UHFFFAOYSA-N

>  <exports>  (332) 
['/opt/xchem-fragalysis-2/maxwin/2A_HIPPO/hippo/A71EV2A_10_recipes/Recipe_1LPVPY0_poses.sdf']

>  <original ID>  (332) 
POTQPPCMLPYKEX-UHFFFAOYSA-N

>  <energy_score>  (332) 
-31.277948

>  <tags>  (332) 
[]

>  <HIPPO ID>  (332) 
142081

>  <name>  (332) 
POTQPPCMLPYKEX-UHFFFAOYSA-N

$$$$
UIXDKHFKLRITRK-UHFFFAOYSA-N
     RDKit          3D

 15 15  0  0  0  0  0  0  0  0999 V2000
    5.9582   11.6972   29.3327 C   0  0  0  0  0  0  0  0  0  0  0  0
    5.7762   11.8488   28.1555 C   0  0  0  0  0  0  0  0  0  0  0  0
    5.5170   12.0371   26.7174 C   0  0  0  0  0  0  0  0  0  0  0  0
    6.8042   12.2943   25.9381 C   0  0  0  0  0  0  0  0  0  0  0  0
    7.4628   11.0558   25.6820 O   0  0  0  0  0  0  0  0  0  0  0  0
    8.5491   11.1064   24.8561 C   0  0  0  0  0  0  0  0  0  0  0  0
    9.3118   12.2352   24.5626 C   0  0  0  0  0  0  0  0  0  0  0  0
   10.3831   12.1470   23.6661 C   0  0  0  0  0  0  0  0  0  0  0  0
   10.7025   10.9214   23.0774 C   0  0  0  0  0  0  0  0  0  0  0  0
   11.7598   10.7707   22.0487 C   0  0  0  0  0  0  0  0  0  0  0  0
   11.9066    9.6596   21.5399 O   0  0  0  0  0  0  0  0  0  0  0  0
   12.5805   11.9859   21.6241 C   0  0  0  0  0  0  0  0  0  0  0  0
   13.6529   11.6152   20.5917 C   0  0  0  0  0  0  0  0  0  0  0  0
    9.9677    9.7830   23.4135 C   0  0  0  0  0  0  0  0  0  0  0  0
    8.8964    9.8843   24.2897 C   0  0  0  0  0  0  0  0  0  0  0  0
  1  2  3  0
  2  3  1  0
  3  4  1  0
  4  5  1  0
  5  6  1  0
  6  7  2  0
  7  8  1  0
  8  9  2  0
  9 10  1  0
 10 11  2  0
 10 12  1  0
 12 13  1  0
  9 14  1  0
 14 15  2  0
 15  6  1  0
M  END
>  <distance_score>  (333) 
0.361611

>  <ref_pdb>  (333) 
A1775a

>  <ref_mols>  (333) 
A1775a

>  <alias>  (333) 
None

>  <original SMILES>  (333) 
C#CCCOc1ccc(C(=O)CC)cc1

>  <inchikey>  (333) 
UIXDKHFKLRITRK-UHFFFAOYSA-N

>  <exports>  (333) 
['/opt/xchem-fragalysis-2/maxwin/2A_HIPPO/hippo/A71EV2A_10_recipes/Recipe_1LPVPY0_poses.sdf']

>  <original ID>  (333) 
UIXDKHFKLRITRK-UHFFFAOYSA-N

>  <energy_score>  (333) 
-28.841549

>  <tags>  (333) 
[]

>  <HIPPO ID>  (333) 
142121

>  <name>  (333) 
UIXDKHFKLRITRK-UHFFFAOYSA-N

$$$$
UEOYGLSGPSAPFF-UHFFFAOYSA-N
     RDKit          3D

 15 15  0  0  0  0  0  0  0  0999 V2000
    3.7125   13.7606   25.6294 C   0  0  0  0  0  0  0  0  0  0  0  0
    4.4658   12.9327   26.0624 C   0  0  0  0  0  0  0  0  0  0  0  0
    5.4479   11.9429   26.5116 C   0  0  0  0  0  0  0  0  0  0  0  0
    6.7931   12.2250   25.8562 C   0  0  0  0  0  0  0  0  0  0  0  0
    7.5352   11.0133   25.7816 O   0  0  0  0  0  0  0  0  0  0  0  0
    8.5924   11.0565   24.9193 C   0  0  0  0  0  0  0  0  0  0  0  0
    8.8988    9.8491   24.3038 C   0  0  0  0  0  0  0  0  0  0  0  0
    9.9502    9.7619   23.4065 C   0  0  0  0  0  0  0  0  0  0  0  0
   10.6973   10.9012   23.1039 C   0  0  0  0  0  0  0  0  0  0  0  0
   11.7442   10.7727   22.0669 C   0  0  0  0  0  0  0  0  0  0  0  0
   11.9075    9.6639   21.5586 O   0  0  0  0  0  0  0  0  0  0  0  0
   12.5131   12.0189   21.6689 C   0  0  0  0  0  0  0  0  0  0  0  0
   13.7457   11.6000   20.4560 Cl  0  0  0  0  0  0  0  0  0  0  0  0
   10.4122   12.1130   23.7404 C   0  0  0  0  0  0  0  0  0  0  0  0
    9.3657   12.1853   24.6586 C   0  0  0  0  0  0  0  0  0  0  0  0
  1  2  3  0
  2  3  1  0
  3  4  1  0
  4  5  1  0
  5  6  1  0
  6  7  2  0
  7  8  1  0
  8  9  2  0
  9 10  1  0
 10 11  2  0
 10 12  1  0
 12 13  1  0
  9 14  1  0
 14 15  2  0
 15  6  1  0
M  END
>  <distance_score>  (334) 
0.369388

>  <ref_pdb>  (334) 
A1775a

>  <ref_mols>  (334) 
A1775a

>  <alias>  (334) 
None

>  <original SMILES>  (334) 
C#CCCOc1ccc(C(=O)CCl)cc1

>  <inchikey>  (334) 
UEOYGLSGPSAPFF-UHFFFAOYSA-N

>  <exports>  (334) 
['/opt/xchem-fragalysis-2/maxwin/2A_HIPPO/hippo/A71EV2A_10_recipes/Recipe_1LPVPY0_poses.sdf']

>  <original ID>  (334) 
UEOYGLSGPSAPFF-UHFFFAOYSA-N

>  <energy_score>  (334) 
-28.568249

>  <tags>  (334) 
[]

>  <HIPPO ID>  (334) 
142122

>  <name>  (334) 
UEOYGLSGPSAPFF-UHFFFAOYSA-N

$$$$
GQSCEDRQSXOVIT-UHFFFAOYSA-N
     RDKit          3D

 15 15  0  0  0  0  0  0  0  0999 V2000
    3.7241   13.8063   25.6926 C   0  0  0  0  0  0  0  0  0  0  0  0
    4.4760   12.9575   26.0863 C   0  0  0  0  0  0  0  0  0  0  0  0
    5.4573   11.9469   26.4911 C   0  0  0  0  0  0  0  0  0  0  0  0
    6.7930   12.2362   25.8198 C   0  0  0  0  0  0  0  0  0  0  0  0
    7.5726   11.0463   25.7915 O   0  0  0  0  0  0  0  0  0  0  0  0
    8.6296   11.0971   24.9261 C   0  0  0  0  0  0  0  0  0  0  0  0
    9.4114   12.2269   24.7095 C   0  0  0  0  0  0  0  0  0  0  0  0
   10.4576   12.1698   23.7920 C   0  0  0  0  0  0  0  0  0  0  0  0
   10.7347   10.9753   23.1135 C   0  0  0  0  0  0  0  0  0  0  0  0
   11.7786   10.8904   22.0749 C   0  0  0  0  0  0  0  0  0  0  0  0
   12.5077   12.1522   21.6956 C   0  0  0  0  0  0  0  0  0  0  0  0
   11.9997    9.8121   21.5275 O   0  0  0  0  0  0  0  0  0  0  0  0
    9.9879    9.8314   23.3682 C   0  0  0  0  0  0  0  0  0  0  0  0
    8.9412    9.9136   24.2608 C   0  0  0  0  0  0  0  0  0  0  0  0
    8.1781    8.8365   24.4411 F   0  0  0  0  0  0  0  0  0  0  0  0
  1  2  3  0
  2  3  1  0
  3  4  1  0
  4  5  1  0
  5  6  1  0
  6  7  2  0
  7  8  1  0
  8  9  2  0
  9 10  1  0
 10 11  1  0
 10 12  2  0
  9 13  1  0
 13 14  2  0
 14 15  1  0
 14  6  1  0
M  END
>  <distance_score>  (335) 
0.455925

>  <ref_pdb>  (335) 
A1775a

>  <ref_mols>  (335) 
A1775a

>  <alias>  (335) 
None

>  <original SMILES>  (335) 
C#CCCOc1ccc(C(C)=O)cc1F

>  <inchikey>  (335) 
GQSCEDRQSXOVIT-UHFFFAOYSA-N

>  <exports>  (335) 
['/opt/xchem-fragalysis-2/maxwin/2A_HIPPO/hippo/A71EV2A_10_recipes/Recipe_1LPVPY0_poses.sdf']

>  <original ID>  (335) 
GQSCEDRQSXOVIT-UHFFFAOYSA-N

>  <energy_score>  (335) 
-57.139497

>  <tags>  (335) 
[]

>  <HIPPO ID>  (335) 
142127

>  <name>  (335) 
GQSCEDRQSXOVIT-UHFFFAOYSA-N

$$$$
GEDCRZKRICVTNN-UHFFFAOYSA-N
     RDKit          3D

 15 15  0  0  0  0  0  0  0  0999 V2000
    3.7924   13.9341   26.0158 C   0  0  0  0  0  0  0  0  0  0  0  0
    4.5648   13.0469   26.2561 C   0  0  0  0  0  0  0  0  0  0  0  0
    5.5618   11.9968   26.4886 C   0  0  0  0  0  0  0  0  0  0  0  0
    6.8419   12.3133   25.7259 C   0  0  0  0  0  0  0  0  0  0  0  0
    7.7399   11.2177   25.8336 O   0  0  0  0  0  0  0  0  0  0  0  0
    8.7738   11.2797   24.9322 C   0  0  0  0  0  0  0  0  0  0  0  0
    9.5576   12.4041   24.7037 C   0  0  0  0  0  0  0  0  0  0  0  0
   10.5898   12.3343   23.7661 C   0  0  0  0  0  0  0  0  0  0  0  0
   10.8354   11.1369   23.0812 C   0  0  0  0  0  0  0  0  0  0  0  0
   11.8528   10.9840   22.0275 C   0  0  0  0  0  0  0  0  0  0  0  0
   12.6051   12.2046   21.6095 C   0  0  0  0  0  0  0  0  0  0  0  0
   12.0451    9.8863   21.5063 O   0  0  0  0  0  0  0  0  0  0  0  0
   10.0728   10.0151   23.3415 C   0  0  0  0  0  0  0  0  0  0  0  0
    9.0617   10.0828   24.2756 C   0  0  0  0  0  0  0  0  0  0  0  0
    8.1938    9.0117   24.3598 N   0  0  0  0  0  0  0  0  0  0  0  0
  1  2  3  0
  2  3  1  0
  3  4  1  0
  4  5  1  0
  5  6  1  0
  6  7  2  0
  7  8  1  0
  8  9  2  0
  9 10  1  0
 10 11  1  0
 10 12  2  0
  9 13  1  0
 13 14  2  0
 14 15  1  0
 14  6  1  0
M  END
>  <distance_score>  (336) 
0.847601

>  <ref_pdb>  (336) 
A1775a

>  <ref_mols>  (336) 
A1775a

>  <alias>  (336) 
None

>  <original SMILES>  (336) 
C#CCCOc1ccc(C(C)=O)cc1N

>  <inchikey>  (336) 
GEDCRZKRICVTNN-UHFFFAOYSA-N

>  <exports>  (336) 
['/opt/xchem-fragalysis-2/maxwin/2A_HIPPO/hippo/A71EV2A_10_recipes/Recipe_1LPVPY0_poses.sdf']

>  <original ID>  (336) 
GEDCRZKRICVTNN-UHFFFAOYSA-N

>  <energy_score>  (336) 
-20.575131

>  <tags>  (336) 
[]

>  <HIPPO ID>  (336) 
142131

>  <name>  (336) 
GEDCRZKRICVTNN-UHFFFAOYSA-N

$$$$
UIUWAYJATSMSTL-UHFFFAOYSA-N
     RDKit          3D

 15 15  0  0  0  0  0  0  0  0999 V2000
    3.5213   12.9270   27.8733 C   0  0  0  0  0  0  0  0  0  0  0  0
    4.8669   13.2599   27.2557 C   0  0  0  0  0  0  0  0  0  0  0  0
    5.6158   12.0160   26.7885 C   0  0  0  0  0  0  0  0  0  0  0  0
    6.9109   12.3809   26.0683 C   0  0  0  0  0  0  0  0  0  0  0  0
    7.5836   11.1814   25.7273 O   0  0  0  0  0  0  0  0  0  0  0  0
    8.6665   11.2906   24.8934 C   0  0  0  0  0  0  0  0  0  0  0  0
    9.4238   12.4288   24.6517 C   0  0  0  0  0  0  0  0  0  0  0  0
   10.4878   12.3655   23.7440 C   0  0  0  0  0  0  0  0  0  0  0  0
   10.7930   11.1607   23.0970 C   0  0  0  0  0  0  0  0  0  0  0  0
   11.8270   11.0129   22.0583 C   0  0  0  0  0  0  0  0  0  0  0  0
   12.5790   12.2368   21.6528 C   0  0  0  0  0  0  0  0  0  0  0  0
   12.0337    9.9169   21.5383 O   0  0  0  0  0  0  0  0  0  0  0  0
   10.0671   10.0226   23.3761 C   0  0  0  0  0  0  0  0  0  0  0  0
    9.0277   10.0875   24.2792 C   0  0  0  0  0  0  0  0  0  0  0  0
    8.2072    8.9788   24.3783 N   0  0  0  0  0  0  0  0  0  0  0  0
  1  2  1  0
  2  3  1  0
  3  4  1  0
  4  5  1  0
  5  6  1  0
  6  7  2  0
  7  8  1  0
  8  9  2  0
  9 10  1  0
 10 11  1  0
 10 12  2  0
  9 13  1  0
 13 14  2  0
 14 15  1  0
 14  6  1  0
M  END
>  <distance_score>  (337) 
0.855439

>  <ref_pdb>  (337) 
A1775a

>  <ref_mols>  (337) 
A1775a

>  <alias>  (337) 
None

>  <original SMILES>  (337) 
CCCCOc1ccc(C(C)=O)cc1N

>  <inchikey>  (337) 
UIUWAYJATSMSTL-UHFFFAOYSA-N

>  <exports>  (337) 
['/opt/xchem-fragalysis-2/maxwin/2A_HIPPO/hippo/A71EV2A_10_recipes/Recipe_1LPVPY0_poses.sdf']

>  <original ID>  (337) 
UIUWAYJATSMSTL-UHFFFAOYSA-N

>  <energy_score>  (337) 
-19.917829

>  <tags>  (337) 
[]

>  <HIPPO ID>  (337) 
142139

>  <name>  (337) 
UIUWAYJATSMSTL-UHFFFAOYSA-N

$$$$
DGRPJRSRLYATME-UHFFFAOYSA-N
     RDKit          3D

 15 15  0  0  0  0  0  0  0  0999 V2000
    3.8403   11.2174   27.8568 C   0  0  0  0  0  0  0  0  0  0  0  0
    4.8757   11.3657   26.7544 C   0  0  0  0  0  0  0  0  0  0  0  0
    6.0726   12.1554   27.2573 C   0  0  0  0  0  0  0  0  0  0  0  0
    7.1140   12.3771   26.1728 C   0  0  0  0  0  0  0  0  0  0  0  0
    7.5802   11.1232   25.6953 O   0  0  0  0  0  0  0  0  0  0  0  0
    8.6347   11.1561   24.8299 C   0  0  0  0  0  0  0  0  0  0  0  0
    9.3881   12.2780   24.4880 C   0  0  0  0  0  0  0  0  0  0  0  0
   10.4428   12.1665   23.5802 C   0  0  0  0  0  0  0  0  0  0  0  0
   10.7513   10.9269   23.0192 C   0  0  0  0  0  0  0  0  0  0  0  0
   11.8061   10.7602   21.9930 C   0  0  0  0  0  0  0  0  0  0  0  0
   11.9461    9.6444   21.4939 O   0  0  0  0  0  0  0  0  0  0  0  0
   12.6335   11.9697   21.5651 C   0  0  0  0  0  0  0  0  0  0  0  0
   13.7115   11.5990   20.5436 C   0  0  0  0  0  0  0  0  0  0  0  0
   10.0121    9.7988   23.3807 C   0  0  0  0  0  0  0  0  0  0  0  0
    8.9550    9.9223   24.2714 C   0  0  0  0  0  0  0  0  0  0  0  0
  1  2  1  0
  2  3  1  0
  3  4  1  0
  4  5  1  0
  5  6  1  0
  6  7  2  0
  7  8  1  0
  8  9  2  0
  9 10  1  0
 10 11  2  0
 10 12  1  0
 12 13  1  0
  9 14  1  0
 14 15  2  0
 15  6  1  0
M  END
>  <distance_score>  (338) 
0.420609

>  <ref_pdb>  (338) 
A1775a

>  <ref_mols>  (338) 
A1775a

>  <alias>  (338) 
None

>  <original SMILES>  (338) 
CCCCOc1ccc(C(=O)CC)cc1

>  <inchikey>  (338) 
DGRPJRSRLYATME-UHFFFAOYSA-N

>  <exports>  (338) 
['/opt/xchem-fragalysis-2/maxwin/2A_HIPPO/hippo/A71EV2A_10_recipes/Recipe_1LPVPY0_poses.sdf']

>  <original ID>  (338) 
DGRPJRSRLYATME-UHFFFAOYSA-N

>  <energy_score>  (338) 
-19.924059

>  <tags>  (338) 
[]

>  <HIPPO ID>  (338) 
142142

>  <name>  (338) 
DGRPJRSRLYATME-UHFFFAOYSA-N

$$$$
ZPZYLIDZIGMVKQ-UHFFFAOYSA-N
     RDKit          3D

 15 15  0  0  0  0  0  0  0  0999 V2000
    4.1886   13.9269   26.3377 C   0  0  0  0  0  0  0  0  0  0  0  0
    4.8039   13.0813   27.4406 C   0  0  0  0  0  0  0  0  0  0  0  0
    5.5767   11.8760   26.9147 C   0  0  0  0  0  0  0  0  0  0  0  0
    6.8138   12.2404   26.1036 C   0  0  0  0  0  0  0  0  0  0  0  0
    7.4430   11.0239   25.7203 O   0  0  0  0  0  0  0  0  0  0  0  0
    8.5277   11.1132   24.8978 C   0  0  0  0  0  0  0  0  0  0  0  0
    9.2816   12.2562   24.6636 C   0  0  0  0  0  0  0  0  0  0  0  0
   10.3541   12.2033   23.7715 C   0  0  0  0  0  0  0  0  0  0  0  0
   10.6833   11.0012   23.1298 C   0  0  0  0  0  0  0  0  0  0  0  0
   11.7459   10.9168   22.1092 C   0  0  0  0  0  0  0  0  0  0  0  0
   12.4779   12.1796   21.7419 C   0  0  0  0  0  0  0  0  0  0  0  0
   11.9808    9.8383   21.5670 O   0  0  0  0  0  0  0  0  0  0  0  0
    9.9633    9.8460   23.3987 C   0  0  0  0  0  0  0  0  0  0  0  0
    8.8939    9.9246   24.2648 C   0  0  0  0  0  0  0  0  0  0  0  0
    8.1615    8.8279   24.4533 F   0  0  0  0  0  0  0  0  0  0  0  0
  1  2  1  0
  2  3  1  0
  3  4  1  0
  4  5  1  0
  5  6  1  0
  6  7  2  0
  7  8  1  0
  8  9  2  0
  9 10  1  0
 10 11  1  0
 10 12  2  0
  9 13  1  0
 13 14  2  0
 14 15  1  0
 14  6  1  0
M  END
>  <distance_score>  (339) 
0.839508

>  <ref_pdb>  (339) 
A1775a

>  <ref_mols>  (339) 
A1775a

>  <alias>  (339) 
None

>  <original SMILES>  (339) 
CCCCOc1ccc(C(C)=O)cc1F

>  <inchikey>  (339) 
ZPZYLIDZIGMVKQ-UHFFFAOYSA-N

>  <exports>  (339) 
['/opt/xchem-fragalysis-2/maxwin/2A_HIPPO/hippo/A71EV2A_10_recipes/Recipe_1LPVPY0_poses.sdf']

>  <original ID>  (339) 
ZPZYLIDZIGMVKQ-UHFFFAOYSA-N

>  <energy_score>  (339) 
-11.462686

>  <tags>  (339) 
[]

>  <HIPPO ID>  (339) 
142143

>  <name>  (339) 
ZPZYLIDZIGMVKQ-UHFFFAOYSA-N

$$$$
JNAGWYRPZQNUKW-UHFFFAOYSA-N
     RDKit          3D

 15 15  0  0  0  0  0  0  0  0999 V2000
    4.7859    9.3078   27.1529 C   0  0  0  0  0  0  0  0  0  0  0  0
    5.7650   10.0947   27.8124 O   0  0  0  0  0  0  0  0  0  0  0  0
    5.4079   11.4629   27.9001 C   0  0  0  0  0  0  0  0  0  0  0  0
    5.4164   12.1962   26.5675 C   0  0  0  0  0  0  0  0  0  0  0  0
    6.8077   12.3345   25.9705 C   0  0  0  0  0  0  0  0  0  0  0  0
    7.3543   11.0689   25.6279 O   0  0  0  0  0  0  0  0  0  0  0  0
    8.4960   11.1013   24.8795 C   0  0  0  0  0  0  0  0  0  0  0  0
    9.2926   12.2228   24.6673 C   0  0  0  0  0  0  0  0  0  0  0  0
   10.3765   12.1508   23.7973 C   0  0  0  0  0  0  0  0  0  0  0  0
   10.6786   10.9475   23.1542 C   0  0  0  0  0  0  0  0  0  0  0  0
   11.7334   10.8668   22.1221 C   0  0  0  0  0  0  0  0  0  0  0  0
   12.4593   12.1369   21.7478 C   0  0  0  0  0  0  0  0  0  0  0  0
   11.9632    9.7921   21.5698 O   0  0  0  0  0  0  0  0  0  0  0  0
    9.9341    9.8030   23.4299 C   0  0  0  0  0  0  0  0  0  0  0  0
    8.8453    9.8900   24.2870 C   0  0  0  0  0  0  0  0  0  0  0  0
  1  2  1  0
  2  3  1  0
  3  4  1  0
  4  5  1  0
  5  6  1  0
  6  7  1  0
  7  8  2  0
  8  9  1  0
  9 10  2  0
 10 11  1  0
 11 12  1  0
 11 13  2  0
 10 14  1  0
 14 15  2  0
 15  7  1  0
M  END
>  <distance_score>  (340) 
0.825634

>  <ref_pdb>  (340) 
A1775a

>  <ref_mols>  (340) 
A1775a

>  <alias>  (340) 
None

>  <original SMILES>  (340) 
COCCCOc1ccc(C(C)=O)cc1

>  <inchikey>  (340) 
JNAGWYRPZQNUKW-UHFFFAOYSA-N

>  <exports>  (340) 
['/opt/xchem-fragalysis-2/maxwin/2A_HIPPO/hippo/A71EV2A_10_recipes/Recipe_1LPVPY0_poses.sdf']

>  <original ID>  (340) 
JNAGWYRPZQNUKW-UHFFFAOYSA-N

>  <energy_score>  (340) 
-10.145828

>  <tags>  (340) 
[]

>  <HIPPO ID>  (340) 
142151

>  <name>  (340) 
JNAGWYRPZQNUKW-UHFFFAOYSA-N

$$$$
VRGYAGVGWCBZQO-UHFFFAOYSA-N
     RDKit          3D

 15 16  0  0  0  0  0  0  0  0999 V2000
    3.9737   13.9882   26.7467 C   0  0  0  0  0  0  0  0  0  0  0  0
    4.7242   13.0512   26.7467 C   0  0  0  0  0  0  0  0  0  0  0  0
    5.6314   11.9004   26.6926 C   0  0  0  0  0  0  0  0  0  0  0  0
    6.8561   12.2003   25.8341 C   0  0  0  0  0  0  0  0  0  0  0  0
    7.5665   10.9821   25.6347 O   0  0  0  0  0  0  0  0  0  0  0  0
    8.6215   11.0238   24.7668 C   0  0  0  0  0  0  0  0  0  0  0  0
    8.9709    9.7701   24.2347 C   0  0  0  0  0  0  0  0  0  0  0  0
   10.0306    9.6233   23.3525 C   0  0  0  0  0  0  0  0  0  0  0  0
   10.7058   10.7704   23.0111 C   0  0  0  0  0  0  0  0  0  0  0  0
   10.3900   12.0259   23.5123 C   0  0  0  0  0  0  0  0  0  0  0  0
    9.3450   12.1660   24.4128 C   0  0  0  0  0  0  0  0  0  0  0  0
   11.2546   13.0974   22.9253 C   0  0  0  0  0  0  0  0  0  0  0  0
   12.2165   12.3580   22.0019 C   0  0  0  0  0  0  0  0  0  0  0  0
   11.7830   10.9092   22.0567 C   0  0  0  0  0  0  0  0  0  0  0  0
   12.2110    9.9692   21.4102 O   0  0  0  0  0  0  0  0  0  0  0  0
  1  2  3  0
  2  3  1  0
  3  4  1  0
  4  5  1  0
  5  6  1  0
  6  7  2  0
  7  8  1  0
  8  9  2  0
  9 10  1  0
 10 11  2  0
 10 12  1  0
 12 13  1  0
 13 14  1  0
 14 15  2  0
 11  6  1  0
 14  9  1  0
M  END
>  <distance_score>  (341) 
1.131383

>  <ref_pdb>  (341) 
A1775a

>  <ref_mols>  (341) 
A1775a

>  <alias>  (341) 
None

>  <original SMILES>  (341) 
C#CCCOc1ccc2c(c1)CCC2=O

>  <inchikey>  (341) 
VRGYAGVGWCBZQO-UHFFFAOYSA-N

>  <exports>  (341) 
['/opt/xchem-fragalysis-2/maxwin/2A_HIPPO/hippo/A71EV2A_10_recipes/Recipe_1LPVPY0_poses.sdf']

>  <original ID>  (341) 
VRGYAGVGWCBZQO-UHFFFAOYSA-N

>  <energy_score>  (341) 
-26.927202

>  <tags>  (341) 
[]

>  <HIPPO ID>  (341) 
142168

>  <name>  (341) 
VRGYAGVGWCBZQO-UHFFFAOYSA-N

$$$$
WBPLFSNMUNEPOM-UHFFFAOYSA-N
     RDKit          3D

 15 16  0  0  0  0  0  0  0  0999 V2000
    4.5866   13.2927   25.4725 C   0  0  0  0  0  0  0  0  0  0  0  0
    5.4667   12.4930   26.0906 C   0  0  0  0  0  0  0  0  0  0  0  0
    4.9326   11.5065   27.5611 Br  0  0  0  0  0  0  0  0  0  0  0  0
    6.9193   12.4364   25.7129 C   0  0  0  0  0  0  0  0  0  0  0  0
    7.4187   11.1150   25.5169 O   0  0  0  0  0  0  0  0  0  0  0  0
    8.5879   11.0606   24.7919 C   0  0  0  0  0  0  0  0  0  0  0  0
    8.8663    9.8060   24.2259 C   0  0  0  0  0  0  0  0  0  0  0  0
    9.9356    9.6236   23.3571 C   0  0  0  0  0  0  0  0  0  0  0  0
   10.7046   10.7309   23.0819 C   0  0  0  0  0  0  0  0  0  0  0  0
   10.5060   11.9670   23.6786 C   0  0  0  0  0  0  0  0  0  0  0  0
    9.4547   12.1399   24.5631 C   0  0  0  0  0  0  0  0  0  0  0  0
   11.5243   12.9722   23.2398 C   0  0  0  0  0  0  0  0  0  0  0  0
   12.2223   12.3073   22.0598 C   0  0  0  0  0  0  0  0  0  0  0  0
   11.7613   10.8631   22.1006 C   0  0  0  0  0  0  0  0  0  0  0  0
   12.1437    9.9307   21.4160 O   0  0  0  0  0  0  0  0  0  0  0  0
  1  2  2  0
  2  3  1  0
  2  4  1  0
  4  5  1  0
  5  6  1  0
  6  7  2  0
  7  8  1  0
  8  9  2  0
  9 10  1  0
 10 11  2  0
 10 12  1  0
 12 13  1  0
 13 14  1  0
 14 15  2  0
 11  6  1  0
 14  9  1  0
M  END
>  <distance_score>  (342) 
1.125008

>  <ref_pdb>  (342) 
A1775a

>  <ref_mols>  (342) 
A1775a

>  <alias>  (342) 
None

>  <original SMILES>  (342) 
C=C(Br)COc1ccc2c(c1)CCC2=O

>  <inchikey>  (342) 
WBPLFSNMUNEPOM-UHFFFAOYSA-N

>  <exports>  (342) 
['/opt/xchem-fragalysis-2/maxwin/2A_HIPPO/hippo/A71EV2A_10_recipes/Recipe_1LPVPY0_poses.sdf']

>  <original ID>  (342) 
WBPLFSNMUNEPOM-UHFFFAOYSA-N

>  <energy_score>  (342) 
-60.038399

>  <tags>  (342) 
[]

>  <HIPPO ID>  (342) 
142181

>  <name>  (342) 
WBPLFSNMUNEPOM-UHFFFAOYSA-N

$$$$
NURYHLLSBJYOSB-UHFFFAOYSA-N
     RDKit          3D

 15 15  0  0  0  0  0  0  0  0999 V2000
    5.1870   10.8334   27.4238 C   0  0  0  0  0  0  0  0  0  0  0  0
    5.3499   11.8856   26.6085 C   0  0  0  0  0  0  0  0  0  0  0  0
    4.1115   13.2967   26.6108 Br  0  0  0  0  0  0  0  0  0  0  0  0
    6.4935   12.0954   25.6503 C   0  0  0  0  0  0  0  0  0  0  0  0
    7.5647   11.1936   25.9422 O   0  0  0  0  0  0  0  0  0  0  0  0
    8.5610   11.2069   25.0021 C   0  0  0  0  0  0  0  0  0  0  0  0
    8.8310    9.9881   24.3808 C   0  0  0  0  0  0  0  0  0  0  0  0
    9.8706    9.8762   23.4676 C   0  0  0  0  0  0  0  0  0  0  0  0
   10.6202   11.0056   23.1455 C   0  0  0  0  0  0  0  0  0  0  0  0
   11.6855   10.8818   22.1264 C   0  0  0  0  0  0  0  0  0  0  0  0
   12.4530   12.1263   21.7438 C   0  0  0  0  0  0  0  0  0  0  0  0
   11.9011    9.7897   21.6035 O   0  0  0  0  0  0  0  0  0  0  0  0
   10.3467   12.2297   23.7656 C   0  0  0  0  0  0  0  0  0  0  0  0
    9.3699   12.3236   24.7543 C   0  0  0  0  0  0  0  0  0  0  0  0
    9.1363   13.5692   25.3589 N   0  0  0  0  0  0  0  0  0  0  0  0
  1  2  2  0
  2  3  1  0
  2  4  1  0
  4  5  1  0
  5  6  1  0
  6  7  2  0
  7  8  1  0
  8  9  2  0
  9 10  1  0
 10 11  1  0
 10 12  2  0
  9 13  1  0
 13 14  2  0
 14 15  1  0
 14  6  1  0
M  END
>  <distance_score>  (343) 
0.537163

>  <ref_pdb>  (343) 
A1775a

>  <ref_mols>  (343) 
A1775a

>  <alias>  (343) 
None

>  <original SMILES>  (343) 
C=C(Br)COc1ccc(C(C)=O)cc1N

>  <inchikey>  (343) 
NURYHLLSBJYOSB-UHFFFAOYSA-N

>  <exports>  (343) 
['/opt/xchem-fragalysis-2/maxwin/2A_HIPPO/hippo/A71EV2A_10_recipes/Recipe_1LPVPY0_poses.sdf']

>  <original ID>  (343) 
NURYHLLSBJYOSB-UHFFFAOYSA-N

>  <energy_score>  (343) 
-19.07053

>  <tags>  (343) 
[]

>  <HIPPO ID>  (343) 
142190

>  <name>  (343) 
NURYHLLSBJYOSB-UHFFFAOYSA-N

$$$$
UUUVWGOVAKXESA-UHFFFAOYSA-N
     RDKit          3D

 15 15  0  0  0  0  0  0  0  0999 V2000
    7.7570   12.6634   26.9254 C   0  0  0  0  0  0  0  0  0  0  0  0
    6.8704   11.9410   26.2316 C   0  0  0  0  0  0  0  0  0  0  0  0
    5.4613   11.7707   26.7290 C   0  0  0  0  0  0  0  0  0  0  0  0
    4.2951   13.3736   25.9647 I   0  0  0  0  0  0  0  0  0  0  0  0
    7.1319   11.2503   25.0657 O   0  0  0  0  0  0  0  0  0  0  0  0
    8.3857   11.2148   24.5120 C   0  0  0  0  0  0  0  0  0  0  0  0
    9.0138   12.3543   24.0153 C   0  0  0  0  0  0  0  0  0  0  0  0
   10.1942   12.2397   23.2845 C   0  0  0  0  0  0  0  0  0  0  0  0
   10.7086   10.9731   22.9997 C   0  0  0  0  0  0  0  0  0  0  0  0
   11.8002   10.7793   22.0176 C   0  0  0  0  0  0  0  0  0  0  0  0
   11.9579    9.6486   21.5592 O   0  0  0  0  0  0  0  0  0  0  0  0
   12.6312   11.9804   21.5746 C   0  0  0  0  0  0  0  0  0  0  0  0
   13.7118   11.5957   20.5602 C   0  0  0  0  0  0  0  0  0  0  0  0
   10.0871    9.8313   23.5162 C   0  0  0  0  0  0  0  0  0  0  0  0
    8.9234    9.9571   24.2632 C   0  0  0  0  0  0  0  0  0  0  0  0
  1  2  2  0
  2  3  1  0
  3  4  1  0
  2  5  1  0
  5  6  1  0
  6  7  2  0
  7  8  1  0
  8  9  2  0
  9 10  1  0
 10 11  2  0
 10 12  1  0
 12 13  1  0
  9 14  1  0
 14 15  2  0
 15  6  1  0
M  END
>  <distance_score>  (344) 
0.530235

>  <ref_pdb>  (344) 
A1775a

>  <ref_mols>  (344) 
A1775a

>  <alias>  (344) 
None

>  <original SMILES>  (344) 
C=C(CI)Oc1ccc(C(=O)CC)cc1

>  <inchikey>  (344) 
UUUVWGOVAKXESA-UHFFFAOYSA-N

>  <exports>  (344) 
['/opt/xchem-fragalysis-2/maxwin/2A_HIPPO/hippo/A71EV2A_10_recipes/Recipe_1LPVPY0_poses.sdf']

>  <original ID>  (344) 
UUUVWGOVAKXESA-UHFFFAOYSA-N

>  <energy_score>  (344) 
-4.601844

>  <tags>  (344) 
[]

>  <HIPPO ID>  (344) 
142195

>  <name>  (344) 
UUUVWGOVAKXESA-UHFFFAOYSA-N

$$$$
PRFJKAFJDXKMLG-UHFFFAOYSA-N
     RDKit          3D

 15 15  0  0  0  0  0  0  0  0999 V2000
    7.8655   12.7085   26.8341 C   0  0  0  0  0  0  0  0  0  0  0  0
    6.9873   12.0091   26.1073 C   0  0  0  0  0  0  0  0  0  0  0  0
    5.6004   11.7358   26.6226 C   0  0  0  0  0  0  0  0  0  0  0  0
    4.3376   13.3264   26.0032 I   0  0  0  0  0  0  0  0  0  0  0  0
    7.2363   11.4686   24.8609 O   0  0  0  0  0  0  0  0  0  0  0  0
    8.5178   11.4006   24.3622 C   0  0  0  0  0  0  0  0  0  0  0  0
    9.1609   12.5354   23.8791 C   0  0  0  0  0  0  0  0  0  0  0  0
   10.3461   12.3989   23.1638 C   0  0  0  0  0  0  0  0  0  0  0  0
   10.8562   11.1218   22.9066 C   0  0  0  0  0  0  0  0  0  0  0  0
   11.9330   10.8894   21.9287 C   0  0  0  0  0  0  0  0  0  0  0  0
   12.7668   12.0600   21.5090 C   0  0  0  0  0  0  0  0  0  0  0  0
   12.0875    9.7682   21.4495 O   0  0  0  0  0  0  0  0  0  0  0  0
   10.2427    9.9946   23.4293 C   0  0  0  0  0  0  0  0  0  0  0  0
    9.0623   10.1319   24.1339 C   0  0  0  0  0  0  0  0  0  0  0  0
    8.3548    8.9669   24.4112 N   0  0  0  0  0  0  0  0  0  0  0  0
  1  2  2  0
  2  3  1  0
  3  4  1  0
  2  5  1  0
  5  6  1  0
  6  7  2  0
  7  8  1  0
  8  9  2  0
  9 10  1  0
 10 11  1  0
 10 12  2  0
  9 13  1  0
 13 14  2  0
 14 15  1  0
 14  6  1  0
M  END
>  <distance_score>  (345) 
0.628689

>  <ref_pdb>  (345) 
A1775a

>  <ref_mols>  (345) 
A1775a

>  <alias>  (345) 
None

>  <original SMILES>  (345) 
C=C(CI)Oc1ccc(C(C)=O)cc1N

>  <inchikey>  (345) 
PRFJKAFJDXKMLG-UHFFFAOYSA-N

>  <exports>  (345) 
['/opt/xchem-fragalysis-2/maxwin/2A_HIPPO/hippo/A71EV2A_10_recipes/Recipe_1LPVPY0_poses.sdf']

>  <original ID>  (345) 
PRFJKAFJDXKMLG-UHFFFAOYSA-N

>  <energy_score>  (345) 
-14.00684

>  <tags>  (345) 
[]

>  <HIPPO ID>  (345) 
142206

>  <name>  (345) 
PRFJKAFJDXKMLG-UHFFFAOYSA-N

$$$$
NKIMAFBIIQDSBW-UHFFFAOYSA-N
     RDKit          3D

 15 15  0  0  0  0  0  0  0  0999 V2000
    5.1399   10.6879   27.3938 C   0  0  0  0  0  0  0  0  0  0  0  0
    5.7901   11.8557   27.3338 C   0  0  0  0  0  0  0  0  0  0  0  0
    5.4143   13.1513   28.6281 Br  0  0  0  0  0  0  0  0  0  0  0  0
    6.8857   12.2099   26.3581 C   0  0  0  0  0  0  0  0  0  0  0  0
    7.3371   11.0327   25.6906 O   0  0  0  0  0  0  0  0  0  0  0  0
    8.4450   11.1073   24.9034 C   0  0  0  0  0  0  0  0  0  0  0  0
    9.2059   12.2383   24.6311 C   0  0  0  0  0  0  0  0  0  0  0  0
   10.2906   12.1566   23.7487 C   0  0  0  0  0  0  0  0  0  0  0  0
   10.6218   10.9356   23.1502 C   0  0  0  0  0  0  0  0  0  0  0  0
   11.6869   10.7946   22.1286 C   0  0  0  0  0  0  0  0  0  0  0  0
   11.8579    9.6800   21.6343 O   0  0  0  0  0  0  0  0  0  0  0  0
   12.4616   12.0355   21.7236 C   0  0  0  0  0  0  0  0  0  0  0  0
   13.6873   11.6035   20.5019 Cl  0  0  0  0  0  0  0  0  0  0  0  0
    9.8874    9.7944   23.4659 C   0  0  0  0  0  0  0  0  0  0  0  0
    8.8043    9.8920   24.3255 C   0  0  0  0  0  0  0  0  0  0  0  0
  1  2  2  0
  2  3  1  0
  2  4  1  0
  4  5  1  0
  5  6  1  0
  6  7  2  0
  7  8  1  0
  8  9  2  0
  9 10  1  0
 10 11  2  0
 10 12  1  0
 12 13  1  0
  9 14  1  0
 14 15  2  0
 15  6  1  0
M  END
>  <distance_score>  (346) 
0.465318

>  <ref_pdb>  (346) 
A1775a

>  <ref_mols>  (346) 
A1775a

>  <alias>  (346) 
None

>  <original SMILES>  (346) 
C=C(Br)COc1ccc(C(=O)CCl)cc1

>  <inchikey>  (346) 
NKIMAFBIIQDSBW-UHFFFAOYSA-N

>  <exports>  (346) 
['/opt/xchem-fragalysis-2/maxwin/2A_HIPPO/hippo/A71EV2A_10_recipes/Recipe_1LPVPY0_poses.sdf']

>  <original ID>  (346) 
NKIMAFBIIQDSBW-UHFFFAOYSA-N

>  <energy_score>  (346) 
-6.26782

>  <tags>  (346) 
[]

>  <HIPPO ID>  (346) 
142212

>  <name>  (346) 
NKIMAFBIIQDSBW-UHFFFAOYSA-N

$$$$
VLMBGEYNBGZYLX-UHFFFAOYSA-N
     RDKit          3D

 15 15  0  0  0  0  0  0  0  0999 V2000
    6.3082   12.8826   24.8076 C   0  0  0  0  0  0  0  0  0  0  0  0
    6.4915   11.9765   25.7814 C   0  0  0  0  0  0  0  0  0  0  0  0
    5.3804   11.6584   26.7529 C   0  0  0  0  0  0  0  0  0  0  0  0
    5.9691   11.9418   28.7678 I   0  0  0  0  0  0  0  0  0  0  0  0
    7.6002   11.1596   25.9286 O   0  0  0  0  0  0  0  0  0  0  0  0
    8.6013   11.1478   24.9972 C   0  0  0  0  0  0  0  0  0  0  0  0
    8.8321    9.9460   24.3389 C   0  0  0  0  0  0  0  0  0  0  0  0
    9.8697    9.8390   23.4267 C   0  0  0  0  0  0  0  0  0  0  0  0
   10.6750   10.9489   23.1578 C   0  0  0  0  0  0  0  0  0  0  0  0
   11.7116   10.7980   22.1100 C   0  0  0  0  0  0  0  0  0  0  0  0
   11.8579    9.6838   21.6075 O   0  0  0  0  0  0  0  0  0  0  0  0
   12.4902   12.0334   21.6958 C   0  0  0  0  0  0  0  0  0  0  0  0
   13.7117   11.5964   20.4758 Cl  0  0  0  0  0  0  0  0  0  0  0  0
   10.4651   12.1493   23.8484 C   0  0  0  0  0  0  0  0  0  0  0  0
    9.4393   12.2391   24.7884 C   0  0  0  0  0  0  0  0  0  0  0  0
  1  2  2  0
  2  3  1  0
  3  4  1  0
  2  5  1  0
  5  6  1  0
  6  7  2  0
  7  8  1  0
  8  9  2  0
  9 10  1  0
 10 11  2  0
 10 12  1  0
 12 13  1  0
  9 14  1  0
 14 15  2  0
 15  6  1  0
M  END
>  <distance_score>  (347) 
0.4614

>  <ref_pdb>  (347) 
A1775a

>  <ref_mols>  (347) 
A1775a

>  <alias>  (347) 
None

>  <original SMILES>  (347) 
C=C(CI)Oc1ccc(C(=O)CCl)cc1

>  <inchikey>  (347) 
VLMBGEYNBGZYLX-UHFFFAOYSA-N

>  <exports>  (347) 
['/opt/xchem-fragalysis-2/maxwin/2A_HIPPO/hippo/A71EV2A_10_recipes/Recipe_1LPVPY0_poses.sdf']

>  <original ID>  (347) 
VLMBGEYNBGZYLX-UHFFFAOYSA-N

>  <energy_score>  (347) 
-7.526199

>  <tags>  (347) 
[]

>  <HIPPO ID>  (347) 
142213

>  <name>  (347) 
VLMBGEYNBGZYLX-UHFFFAOYSA-N

$$$$
JOAPCGPLMHJWPM-UHFFFAOYSA-N
     RDKit          3D

 15 15  0  0  0  0  0  0  0  0999 V2000
    4.7605   12.7685   27.0613 C   0  0  0  0  0  0  0  0  0  0  0  0
    5.6403   11.7634   27.0232 C   0  0  0  0  0  0  0  0  0  0  0  0
    5.8016   10.6134   28.4880 Br  0  0  0  0  0  0  0  0  0  0  0  0
    6.4802   11.4216   25.8257 C   0  0  0  0  0  0  0  0  0  0  0  0
    7.8309   11.7944   26.0785 O   0  0  0  0  0  0  0  0  0  0  0  0
    8.7010   11.5185   25.0636 C   0  0  0  0  0  0  0  0  0  0  0  0
    8.8304   10.2699   24.4625 C   0  0  0  0  0  0  0  0  0  0  0  0
    9.8304   10.0530   23.5136 C   0  0  0  0  0  0  0  0  0  0  0  0
   10.6914   11.0940   23.1463 C   0  0  0  0  0  0  0  0  0  0  0  0
   11.7134   10.8356   22.0969 C   0  0  0  0  0  0  0  0  0  0  0  0
   11.7903    9.7031   21.6209 O   0  0  0  0  0  0  0  0  0  0  0  0
   12.5843   12.0004   21.6209 C   0  0  0  0  0  0  0  0  0  0  0  0
   13.6347   11.5805   20.5901 C   0  0  0  0  0  0  0  0  0  0  0  0
   10.5579   12.3441   23.7556 C   0  0  0  0  0  0  0  0  0  0  0  0
    9.5762   12.5460   24.7236 C   0  0  0  0  0  0  0  0  0  0  0  0
  1  2  2  0
  2  3  1  0
  2  4  1  0
  4  5  1  0
  5  6  1  0
  6  7  2  0
  7  8  1  0
  8  9  2  0
  9 10  1  0
 10 11  2  0
 10 12  1  0
 12 13  1  0
  9 14  1  0
 14 15  2  0
 15  6  1  0
M  END
>  <distance_score>  (348) 
0.651221

>  <ref_pdb>  (348) 
A1775a

>  <ref_mols>  (348) 
A1775a

>  <alias>  (348) 
None

>  <original SMILES>  (348) 
C=C(Br)COc1ccc(C(=O)CC)cc1

>  <inchikey>  (348) 
JOAPCGPLMHJWPM-UHFFFAOYSA-N

>  <exports>  (348) 
['/opt/xchem-fragalysis-2/maxwin/2A_HIPPO/hippo/A71EV2A_10_recipes/Recipe_1LPVPY0_poses.sdf']

>  <original ID>  (348) 
JOAPCGPLMHJWPM-UHFFFAOYSA-N

>  <energy_score>  (348) 
-11.482462

>  <tags>  (348) 
[]

>  <HIPPO ID>  (348) 
142222

>  <name>  (348) 
JOAPCGPLMHJWPM-UHFFFAOYSA-N

$$$$
APUDIGAMSCIXOS-UHFFFAOYSA-N
     RDKit          3D

 15 16  0  0  0  0  0  0  0  0999 V2000
    7.8629   12.7276   26.8083 C   0  0  0  0  0  0  0  0  0  0  0  0
    6.9471   11.9631   26.2009 C   0  0  0  0  0  0  0  0  0  0  0  0
    5.5602   11.7075   26.7477 C   0  0  0  0  0  0  0  0  0  0  0  0
    5.4853   11.4284   28.8658 I   0  0  0  0  0  0  0  0  0  0  0  0
    7.1550   11.3265   24.9883 O   0  0  0  0  0  0  0  0  0  0  0  0
    8.4141   11.2145   24.4477 C   0  0  0  0  0  0  0  0  0  0  0  0
    8.8942    9.9108   24.2455 C   0  0  0  0  0  0  0  0  0  0  0  0
   10.0519    9.6868   23.5139 C   0  0  0  0  0  0  0  0  0  0  0  0
   10.6902   10.8007   23.0132 C   0  0  0  0  0  0  0  0  0  0  0  0
   10.2574   12.1041   23.2226 C   0  0  0  0  0  0  0  0  0  0  0  0
    9.0858   12.3228   23.9198 C   0  0  0  0  0  0  0  0  0  0  0  0
   11.0917   13.1073   22.4857 C   0  0  0  0  0  0  0  0  0  0  0  0
   12.2374   12.2813   21.9106 C   0  0  0  0  0  0  0  0  0  0  0  0
   11.7891   10.8464   22.0751 C   0  0  0  0  0  0  0  0  0  0  0  0
   12.2027    9.8581   21.4963 O   0  0  0  0  0  0  0  0  0  0  0  0
  1  2  2  0
  2  3  1  0
  3  4  1  0
  2  5  1  0
  5  6  1  0
  6  7  2  0
  7  8  1  0
  8  9  2  0
  9 10  1  0
 10 11  2  0
 10 12  1  0
 12 13  1  0
 13 14  1  0
 14 15  2  0
 11  6  1  0
 14  9  1  0
M  END
>  <distance_score>  (349) 
1.163214

>  <ref_pdb>  (349) 
A1775a

>  <ref_mols>  (349) 
A1775a

>  <alias>  (349) 
None

>  <original SMILES>  (349) 
C=C(CI)Oc1ccc2c(c1)CCC2=O

>  <inchikey>  (349) 
APUDIGAMSCIXOS-UHFFFAOYSA-N

>  <exports>  (349) 
['/opt/xchem-fragalysis-2/maxwin/2A_HIPPO/hippo/A71EV2A_10_recipes/Recipe_1LPVPY0_poses.sdf']

>  <original ID>  (349) 
APUDIGAMSCIXOS-UHFFFAOYSA-N

>  <energy_score>  (349) 
-27.696621

>  <tags>  (349) 
[]

>  <HIPPO ID>  (349) 
142226

>  <name>  (349) 
APUDIGAMSCIXOS-UHFFFAOYSA-N

$$$$
BRBGWKAAKFKEEZ-UHFFFAOYSA-N
     RDKit          3D

 15 15  0  0  0  0  0  0  0  0999 V2000
    5.0816   10.6902   27.2921 C   0  0  0  0  0  0  0  0  0  0  0  0
    5.4208   11.8685   26.7485 C   0  0  0  0  0  0  0  0  0  0  0  0
    4.2597   13.3357   26.8585 Br  0  0  0  0  0  0  0  0  0  0  0  0
    6.6983   12.1609   26.0064 C   0  0  0  0  0  0  0  0  0  0  0  0
    7.3843   10.9480   25.7001 O   0  0  0  0  0  0  0  0  0  0  0  0
    8.4786   11.0505   24.8921 C   0  0  0  0  0  0  0  0  0  0  0  0
    8.8634    9.8514   24.2949 C   0  0  0  0  0  0  0  0  0  0  0  0
    9.9462    9.7993   23.4284 C   0  0  0  0  0  0  0  0  0  0  0  0
   10.6511   10.9666   23.1399 C   0  0  0  0  0  0  0  0  0  0  0  0
   11.7221   10.8959   22.1252 C   0  0  0  0  0  0  0  0  0  0  0  0
   12.4506   12.1672   21.7698 C   0  0  0  0  0  0  0  0  0  0  0  0
   11.9643    9.8216   21.5780 O   0  0  0  0  0  0  0  0  0  0  0  0
   10.3001   12.1680   23.7584 C   0  0  0  0  0  0  0  0  0  0  0  0
    9.2232   12.1983   24.6331 C   0  0  0  0  0  0  0  0  0  0  0  0
    8.9273   13.3689   25.2146 F   0  0  0  0  0  0  0  0  0  0  0  0
  1  2  2  0
  2  3  1  0
  2  4  1  0
  4  5  1  0
  5  6  1  0
  6  7  2  0
  7  8  1  0
  8  9  2  0
  9 10  1  0
 10 11  1  0
 10 12  2  0
  9 13  1  0
 13 14  2  0
 14 15  1  0
 14  6  1  0
M  END
>  <distance_score>  (350) 
0.484563

>  <ref_pdb>  (350) 
A1775a

>  <ref_mols>  (350) 
A1775a

>  <alias>  (350) 
None

>  <original SMILES>  (350) 
C=C(Br)COc1ccc(C(C)=O)cc1F

>  <inchikey>  (350) 
BRBGWKAAKFKEEZ-UHFFFAOYSA-N

>  <exports>  (350) 
['/opt/xchem-fragalysis-2/maxwin/2A_HIPPO/hippo/A71EV2A_10_recipes/Recipe_1LPVPY0_poses.sdf']

>  <original ID>  (350) 
BRBGWKAAKFKEEZ-UHFFFAOYSA-N

>  <energy_score>  (350) 
-12.256666

>  <tags>  (350) 
[]

>  <HIPPO ID>  (350) 
142245

>  <name>  (350) 
BRBGWKAAKFKEEZ-UHFFFAOYSA-N

$$$$
JQVGZRZJTCMBDQ-UHFFFAOYSA-N
     RDKit          3D

 15 15  0  0  0  0  0  0  0  0999 V2000
   12.4220   12.1763   21.7986 C   0  0  0  0  0  0  0  0  0  0  0  0
   11.7033   10.8988   22.1532 C   0  0  0  0  0  0  0  0  0  0  0  0
   11.9516    9.8288   21.5994 O   0  0  0  0  0  0  0  0  0  0  0  0
   10.6333   10.9622   23.1713 C   0  0  0  0  0  0  0  0  0  0  0  0
   10.2867   12.1573   23.8110 C   0  0  0  0  0  0  0  0  0  0  0  0
    9.1948   12.1982   24.6782 C   0  0  0  0  0  0  0  0  0  0  0  0
    8.4399   11.0514   24.8938 C   0  0  0  0  0  0  0  0  0  0  0  0
    7.3091   10.9607   25.6490 O   0  0  0  0  0  0  0  0  0  0  0  0
    6.8494   12.1451   26.2926 C   0  0  0  0  0  0  0  0  0  0  0  0
    5.5928   11.7840   27.0640 C   0  0  0  0  0  0  0  0  0  0  0  0
    5.3543   12.7260   28.2057 C   0  0  0  0  0  0  0  0  0  0  0  0
    6.1407   13.5302   28.6808 O   0  0  0  0  0  0  0  0  0  0  0  0
    4.1207   12.5730   28.7208 O   0  0  0  0  0  0  0  0  0  0  0  0
    8.8229    9.8560   24.2872 C   0  0  0  0  0  0  0  0  0  0  0  0
    9.9173    9.7993   23.4370 C   0  0  0  0  0  0  0  0  0  0  0  0
  1  2  1  0
  2  3  2  0
  2  4  1  0
  4  5  2  0
  5  6  1  0
  6  7  2  0
  7  8  1  0
  8  9  1  0
  9 10  1  0
 10 11  1  0
 11 12  2  0
 11 13  1  0
  7 14  1  0
 14 15  2  0
 15  4  1  0
M  END
>  <distance_score>  (351) 
0.805473

>  <ref_pdb>  (351) 
A1775a

>  <ref_mols>  (351) 
A1775a

>  <alias>  (351) 
None

>  <original SMILES>  (351) 
CC(=O)c1ccc(OCCC(=O)O)cc1

>  <inchikey>  (351) 
JQVGZRZJTCMBDQ-UHFFFAOYSA-N

>  <exports>  (351) 
['/opt/xchem-fragalysis-2/maxwin/2A_HIPPO/hippo/A71EV2A_10_recipes/Recipe_1LPVPY0_poses.sdf']

>  <original ID>  (351) 
JQVGZRZJTCMBDQ-UHFFFAOYSA-N

>  <energy_score>  (351) 
-21.302862

>  <tags>  (351) 
[]

>  <HIPPO ID>  (351) 
142256

>  <name>  (351) 
JQVGZRZJTCMBDQ-UHFFFAOYSA-N

$$$$
SCHFMXGOAQZALY-UHFFFAOYSA-N
     RDKit          3D

 15 15  0  0  0  0  0  0  0  0999 V2000
   13.6325   11.6298   20.6114 C   0  0  0  0  0  0  0  0  0  0  0  0
   12.5636   12.0051   21.6487 C   0  0  0  0  0  0  0  0  0  0  0  0
   11.7477   10.7889   22.0725 C   0  0  0  0  0  0  0  0  0  0  0  0
   11.8979    9.6798   21.5577 O   0  0  0  0  0  0  0  0  0  0  0  0
   10.6890   10.9303   23.1021 C   0  0  0  0  0  0  0  0  0  0  0  0
    9.9651    9.7812   23.4180 C   0  0  0  0  0  0  0  0  0  0  0  0
    8.8724    9.8675   24.2649 C   0  0  0  0  0  0  0  0  0  0  0  0
    8.4927   11.0812   24.8324 C   0  0  0  0  0  0  0  0  0  0  0  0
    7.3586   10.9936   25.5760 O   0  0  0  0  0  0  0  0  0  0  0  0
    6.8794   12.1412   26.2695 C   0  0  0  0  0  0  0  0  0  0  0  0
    5.5744   11.7090   26.9353 C   0  0  0  0  0  0  0  0  0  0  0  0
    5.2306   12.4561   28.2169 C   0  0  0  0  0  0  0  0  0  0  0  0
    5.0669   13.8845   28.0197 N   0  0  0  0  0  0  0  0  0  0  0  0
    9.2487   12.2190   24.5740 C   0  0  0  0  0  0  0  0  0  0  0  0
   10.3439   12.1477   23.6987 C   0  0  0  0  0  0  0  0  0  0  0  0
  1  2  1  0
  2  3  1  0
  3  4  2  0
  3  5  1  0
  5  6  2  0
  6  7  1  0
  7  8  2  0
  8  9  1  0
  9 10  1  0
 10 11  1  0
 11 12  1  0
 12 13  1  0
  8 14  1  0
 14 15  2  0
 15  5  1  0
M  END
>  <distance_score>  (352) 
0.396676

>  <ref_pdb>  (352) 
A1775a

>  <ref_mols>  (352) 
A1775a

>  <alias>  (352) 
None

>  <original SMILES>  (352) 
CCC(=O)c1ccc(OCCCN)cc1

>  <inchikey>  (352) 
SCHFMXGOAQZALY-UHFFFAOYSA-N

>  <exports>  (352) 
['/opt/xchem-fragalysis-2/maxwin/2A_HIPPO/hippo/A71EV2A_10_recipes/Recipe_1LPVPY0_poses.sdf']

>  <original ID>  (352) 
SCHFMXGOAQZALY-UHFFFAOYSA-N

>  <energy_score>  (352) 
-9.543562

>  <tags>  (352) 
[]

>  <HIPPO ID>  (352) 
142268

>  <name>  (352) 
SCHFMXGOAQZALY-UHFFFAOYSA-N

$$$$
DGMPBOVWZDSEJP-UHFFFAOYSA-N
     RDKit          3D

 15 15  0  0  0  0  0  0  0  0999 V2000
    5.0403    9.7583   27.0278 C   0  0  0  0  0  0  0  0  0  0  0  0
    5.2896   11.1433   27.5888 C   0  0  0  0  0  0  0  0  0  0  0  0
    5.4018   12.2180   26.5160 C   0  0  0  0  0  0  0  0  0  0  0  0
    6.8101   12.3713   25.9476 C   0  0  0  0  0  0  0  0  0  0  0  0
    7.3825   11.1129   25.6270 O   0  0  0  0  0  0  0  0  0  0  0  0
    8.5110   11.1328   24.8634 C   0  0  0  0  0  0  0  0  0  0  0  0
    9.3101   12.2443   24.6131 C   0  0  0  0  0  0  0  0  0  0  0  0
   10.3893   12.1431   23.7348 C   0  0  0  0  0  0  0  0  0  0  0  0
   10.6818   10.9192   23.1254 C   0  0  0  0  0  0  0  0  0  0  0  0
   11.7319   10.7762   22.0917 C   0  0  0  0  0  0  0  0  0  0  0  0
   11.8942    9.6633   21.5920 O   0  0  0  0  0  0  0  0  0  0  0  0
   12.5025   12.0189   21.6831 C   0  0  0  0  0  0  0  0  0  0  0  0
   13.7312   11.5951   20.4671 Cl  0  0  0  0  0  0  0  0  0  0  0  0
    9.9265    9.7894   23.4393 C   0  0  0  0  0  0  0  0  0  0  0  0
    8.8452    9.9058   24.2990 C   0  0  0  0  0  0  0  0  0  0  0  0
  1  2  1  0
  2  3  1  0
  3  4  1  0
  4  5  1  0
  5  6  1  0
  6  7  2  0
  7  8  1  0
  8  9  2  0
  9 10  1  0
 10 11  2  0
 10 12  1  0
 12 13  1  0
  9 14  1  0
 14 15  2  0
 15  6  1  0
M  END
>  <distance_score>  (353) 
0.384684

>  <ref_pdb>  (353) 
A1775a

>  <ref_mols>  (353) 
A1775a

>  <alias>  (353) 
None

>  <original SMILES>  (353) 
CCCCOc1ccc(C(=O)CCl)cc1

>  <inchikey>  (353) 
DGMPBOVWZDSEJP-UHFFFAOYSA-N

>  <exports>  (353) 
['/opt/xchem-fragalysis-2/maxwin/2A_HIPPO/hippo/A71EV2A_10_recipes/Recipe_1LPVPY0_poses.sdf']

>  <original ID>  (353) 
DGMPBOVWZDSEJP-UHFFFAOYSA-N

>  <energy_score>  (353) 
-11.256591

>  <tags>  (353) 
[]

>  <HIPPO ID>  (353) 
142275

>  <name>  (353) 
DGMPBOVWZDSEJP-UHFFFAOYSA-N

$$$$
WZRMYAHHIGSNNQ-UHFFFAOYSA-N
     RDKit          3D

 15 16  0  0  0  0  0  0  0  0999 V2000
    3.3743   13.1255   27.1542 C   0  0  0  0  0  0  0  0  0  0  0  0
    4.5378   13.1376   26.1802 C   0  0  0  0  0  0  0  0  0  0  0  0
    5.5544   12.0399   26.4831 C   0  0  0  0  0  0  0  0  0  0  0  0
    6.8123   12.2329   25.6452 C   0  0  0  0  0  0  0  0  0  0  0  0
    7.6151   11.0594   25.7202 O   0  0  0  0  0  0  0  0  0  0  0  0
    8.6626   11.0490   24.8366 C   0  0  0  0  0  0  0  0  0  0  0  0
    8.9310    9.8027   24.2487 C   0  0  0  0  0  0  0  0  0  0  0  0
    9.9672    9.6424   23.3398 C   0  0  0  0  0  0  0  0  0  0  0  0
   10.7068   10.7643   23.0443 C   0  0  0  0  0  0  0  0  0  0  0  0
   10.4870   12.0052   23.6268 C   0  0  0  0  0  0  0  0  0  0  0  0
    9.4627   12.1598   24.5462 C   0  0  0  0  0  0  0  0  0  0  0  0
   11.4647   13.0313   23.1472 C   0  0  0  0  0  0  0  0  0  0  0  0
   12.2323   12.3357   22.0291 C   0  0  0  0  0  0  0  0  0  0  0  0
   11.7717   10.8934   22.0733 C   0  0  0  0  0  0  0  0  0  0  0  0
   12.1679    9.9549   21.4047 O   0  0  0  0  0  0  0  0  0  0  0  0
  1  2  1  0
  2  3  1  0
  3  4  1  0
  4  5  1  0
  5  6  1  0
  6  7  2  0
  7  8  1  0
  8  9  2  0
  9 10  1  0
 10 11  2  0
 10 12  1  0
 12 13  1  0
 13 14  1  0
 14 15  2  0
 11  6  1  0
 14  9  1  0
M  END
>  <distance_score>  (354) 
1.118102

>  <ref_pdb>  (354) 
A1775a

>  <ref_mols>  (354) 
A1775a

>  <alias>  (354) 
None

>  <original SMILES>  (354) 
CCCCOc1ccc2c(c1)CCC2=O

>  <inchikey>  (354) 
WZRMYAHHIGSNNQ-UHFFFAOYSA-N

>  <exports>  (354) 
['/opt/xchem-fragalysis-2/maxwin/2A_HIPPO/hippo/A71EV2A_10_recipes/Recipe_1LPVPY0_poses.sdf']

>  <original ID>  (354) 
WZRMYAHHIGSNNQ-UHFFFAOYSA-N

>  <energy_score>  (354) 
-28.535234

>  <tags>  (354) 
[]

>  <HIPPO ID>  (354) 
142279

>  <name>  (354) 
WZRMYAHHIGSNNQ-UHFFFAOYSA-N

$$$$
JAMOZBULKTXFSB-UHFFFAOYSA-N
     RDKit          3D

 15 15  0  0  0  0  0  0  0  0999 V2000
    5.8056    9.9087   27.9189 N   0  0  0  0  0  0  0  0  0  0  0  0
    5.5108   11.3229   28.0736 C   0  0  0  0  0  0  0  0  0  0  0  0
    5.4310   12.0866   26.7530 C   0  0  0  0  0  0  0  0  0  0  0  0
    6.7808   12.2871   26.0696 C   0  0  0  0  0  0  0  0  0  0  0  0
    7.3206   11.0381   25.6538 O   0  0  0  0  0  0  0  0  0  0  0  0
    8.4500   11.0858   24.8869 C   0  0  0  0  0  0  0  0  0  0  0  0
    8.8080    9.8687   24.3153 C   0  0  0  0  0  0  0  0  0  0  0  0
    9.8952    9.7702   23.4589 C   0  0  0  0  0  0  0  0  0  0  0  0
   10.6370   10.9095   23.1488 C   0  0  0  0  0  0  0  0  0  0  0  0
   11.6973   10.7764   22.1219 C   0  0  0  0  0  0  0  0  0  0  0  0
   11.8692    9.6648   21.6220 O   0  0  0  0  0  0  0  0  0  0  0  0
   12.4658   12.0228   21.7185 C   0  0  0  0  0  0  0  0  0  0  0  0
   13.6935   11.6013   20.4963 Cl  0  0  0  0  0  0  0  0  0  0  0  0
   10.3189   12.1272   23.7574 C   0  0  0  0  0  0  0  0  0  0  0  0
    9.2321   12.2098   24.6336 C   0  0  0  0  0  0  0  0  0  0  0  0
  1  2  1  0
  2  3  1  0
  3  4  1  0
  4  5  1  0
  5  6  1  0
  6  7  2  0
  7  8  1  0
  8  9  2  0
  9 10  1  0
 10 11  2  0
 10 12  1  0
 12 13  1  0
  9 14  1  0
 14 15  2  0
 15  6  1  0
M  END
>  <distance_score>  (355) 
0.395262

>  <ref_pdb>  (355) 
A1775a

>  <ref_mols>  (355) 
A1775a

>  <alias>  (355) 
None

>  <original SMILES>  (355) 
NCCCOc1ccc(C(=O)CCl)cc1

>  <inchikey>  (355) 
JAMOZBULKTXFSB-UHFFFAOYSA-N

>  <exports>  (355) 
['/opt/xchem-fragalysis-2/maxwin/2A_HIPPO/hippo/A71EV2A_10_recipes/Recipe_1LPVPY0_poses.sdf']

>  <original ID>  (355) 
JAMOZBULKTXFSB-UHFFFAOYSA-N

>  <energy_score>  (355) 
-12.67849

>  <tags>  (355) 
[]

>  <HIPPO ID>  (355) 
142288

>  <name>  (355) 
JAMOZBULKTXFSB-UHFFFAOYSA-N

$$$$
WNXCLNQPKGSVHP-UHFFFAOYSA-N
     RDKit          3D

 15 15  0  0  0  0  0  0  0  0999 V2000
   12.4511   12.1763   21.7747 C   0  0  0  0  0  0  0  0  0  0  0  0
   11.7326   10.9000   22.1292 C   0  0  0  0  0  0  0  0  0  0  0  0
   11.9789    9.8299   21.5755 O   0  0  0  0  0  0  0  0  0  0  0  0
   10.6632   10.9617   23.1455 C   0  0  0  0  0  0  0  0  0  0  0  0
    9.9552    9.7926   23.4130 C   0  0  0  0  0  0  0  0  0  0  0  0
    8.8490    9.8439   24.2473 C   0  0  0  0  0  0  0  0  0  0  0  0
    8.4448   11.0419   24.8357 C   0  0  0  0  0  0  0  0  0  0  0  0
    7.2896   10.9372   25.5485 O   0  0  0  0  0  0  0  0  0  0  0  0
    6.8408   12.0825   26.2632 C   0  0  0  0  0  0  0  0  0  0  0  0
    5.5905   11.6633   27.0229 C   0  0  0  0  0  0  0  0  0  0  0  0
    5.2416   12.5787   28.1865 C   0  0  0  0  0  0  0  0  0  0  0  0
    6.2270   12.4623   29.2584 N   0  0  0  0  0  0  0  0  0  0  0  0
    9.2047   12.1871   24.6173 C   0  0  0  0  0  0  0  0  0  0  0  0
    8.8879   13.3594   25.1858 F   0  0  0  0  0  0  0  0  0  0  0  0
   10.3063   12.1580   23.7724 C   0  0  0  0  0  0  0  0  0  0  0  0
  1  2  1  0
  2  3  2  0
  2  4  1  0
  4  5  2  0
  5  6  1  0
  6  7  2  0
  7  8  1  0
  8  9  1  0
  9 10  1  0
 10 11  1  0
 11 12  1  0
  7 13  1  0
 13 14  1  0
 13 15  2  0
 15  4  1  0
M  END
>  <distance_score>  (356) 
0.504394

>  <ref_pdb>  (356) 
A1775a

>  <ref_mols>  (356) 
A1775a

>  <alias>  (356) 
None

>  <original SMILES>  (356) 
CC(=O)c1ccc(OCCCN)c(F)c1

>  <inchikey>  (356) 
WNXCLNQPKGSVHP-UHFFFAOYSA-N

>  <exports>  (356) 
['/opt/xchem-fragalysis-2/maxwin/2A_HIPPO/hippo/A71EV2A_10_recipes/Recipe_1LPVPY0_poses.sdf']

>  <original ID>  (356) 
WNXCLNQPKGSVHP-UHFFFAOYSA-N

>  <energy_score>  (356) 
-68.881253

>  <tags>  (356) 
[]

>  <HIPPO ID>  (356) 
142304

>  <name>  (356) 
WNXCLNQPKGSVHP-UHFFFAOYSA-N

$$$$
FZYYTGVVUIPDIH-UHFFFAOYSA-N
     RDKit          3D

 15 15  0  0  0  0  0  0  0  0999 V2000
    6.4964   12.8608   24.5852 C   0  0  0  0  0  0  0  0  0  0  0  0
    6.6301   12.0817   25.6721 C   0  0  0  0  0  0  0  0  0  0  0  0
    5.5978   11.8981   26.7639 C   0  0  0  0  0  0  0  0  0  0  0  0
    3.9570   13.2297   26.7503 I   0  0  0  0  0  0  0  0  0  0  0  0
    7.7420   11.2790   25.9148 O   0  0  0  0  0  0  0  0  0  0  0  0
    8.7542   11.2160   24.9970 C   0  0  0  0  0  0  0  0  0  0  0  0
    9.6136   12.2926   24.8054 C   0  0  0  0  0  0  0  0  0  0  0  0
   10.6201   12.1909   23.8536 C   0  0  0  0  0  0  0  0  0  0  0  0
   10.7853   10.9988   23.1329 C   0  0  0  0  0  0  0  0  0  0  0  0
   11.7946   10.8753   22.0635 C   0  0  0  0  0  0  0  0  0  0  0  0
   12.5354   12.1179   21.6411 C   0  0  0  0  0  0  0  0  0  0  0  0
   11.9769    9.7838   21.5289 O   0  0  0  0  0  0  0  0  0  0  0  0
    9.9672    9.8986   23.3810 C   0  0  0  0  0  0  0  0  0  0  0  0
    8.9523   10.0257   24.3052 C   0  0  0  0  0  0  0  0  0  0  0  0
    8.1357    8.9912   24.5100 F   0  0  0  0  0  0  0  0  0  0  0  0
  1  2  2  0
  2  3  1  0
  3  4  1  0
  2  5  1  0
  5  6  1  0
  6  7  2  0
  7  8  1  0
  8  9  2  0
  9 10  1  0
 10 11  1  0
 10 12  2  0
  9 13  1  0
 13 14  2  0
 14 15  1  0
 14  6  1  0
M  END
>  <distance_score>  (357) 
0.502346

>  <ref_pdb>  (357) 
A1775a

>  <ref_mols>  (357) 
A1775a

>  <alias>  (357) 
None

>  <original SMILES>  (357) 
C=C(CI)Oc1ccc(C(C)=O)cc1F

>  <inchikey>  (357) 
FZYYTGVVUIPDIH-UHFFFAOYSA-N

>  <exports>  (357) 
['/opt/xchem-fragalysis-2/maxwin/2A_HIPPO/hippo/A71EV2A_10_recipes/Recipe_1LPVPY0_poses.sdf']

>  <original ID>  (357) 
FZYYTGVVUIPDIH-UHFFFAOYSA-N

>  <energy_score>  (357) 
-6.68897

>  <tags>  (357) 
[]

>  <HIPPO ID>  (357) 
142308

>  <name>  (357) 
FZYYTGVVUIPDIH-UHFFFAOYSA-N

$$$$
YRQDZCKXZIGSRE-UHFFFAOYSA-N
     RDKit          3D

 15 15  0  0  0  0  0  0  0  0999 V2000
   12.4117   12.1387   21.7814 C   0  0  0  0  0  0  0  0  0  0  0  0
   11.6411   10.8977   22.1712 C   0  0  0  0  0  0  0  0  0  0  0  0
   11.8532    9.8020   21.6541 O   0  0  0  0  0  0  0  0  0  0  0  0
   10.5781   11.0320   23.1938 C   0  0  0  0  0  0  0  0  0  0  0  0
    9.8101    9.9131   23.5122 C   0  0  0  0  0  0  0  0  0  0  0  0
    8.7767   10.0342   24.4338 C   0  0  0  0  0  0  0  0  0  0  0  0
    8.5321   11.2513   25.0673 C   0  0  0  0  0  0  0  0  0  0  0  0
    7.5605   11.2620   26.0354 O   0  0  0  0  0  0  0  0  0  0  0  0
    6.4571   12.1133   25.7168 C   0  0  0  0  0  0  0  0  0  0  0  0
    5.2959   11.7757   26.6451 C   0  0  0  0  0  0  0  0  0  0  0  0
    5.5353   12.1215   28.1178 C   0  0  0  0  0  0  0  0  0  0  0  0
    5.5163   13.5629   28.3870 N   0  0  0  0  0  0  0  0  0  0  0  0
    9.3587   12.3542   24.8228 C   0  0  0  0  0  0  0  0  0  0  0  0
    9.1400   13.5941   25.4449 N   0  0  0  0  0  0  0  0  0  0  0  0
   10.3272   12.2555   23.8259 C   0  0  0  0  0  0  0  0  0  0  0  0
  1  2  1  0
  2  3  2  0
  2  4  1  0
  4  5  2  0
  5  6  1  0
  6  7  2  0
  7  8  1  0
  8  9  1  0
  9 10  1  0
 10 11  1  0
 11 12  1  0
  7 13  1  0
 13 14  1  0
 13 15  2  0
 15  4  1  0
M  END
>  <distance_score>  (358) 
0.586548

>  <ref_pdb>  (358) 
A1775a

>  <ref_mols>  (358) 
A1775a

>  <alias>  (358) 
None

>  <original SMILES>  (358) 
CC(=O)c1ccc(OCCCN)c(N)c1

>  <inchikey>  (358) 
YRQDZCKXZIGSRE-UHFFFAOYSA-N

>  <exports>  (358) 
['/opt/xchem-fragalysis-2/maxwin/2A_HIPPO/hippo/A71EV2A_10_recipes/Recipe_1LPVPY0_poses.sdf']

>  <original ID>  (358) 
YRQDZCKXZIGSRE-UHFFFAOYSA-N

>  <energy_score>  (358) 
-19.897

>  <tags>  (358) 
[]

>  <HIPPO ID>  (358) 
142333

>  <name>  (358) 
YRQDZCKXZIGSRE-UHFFFAOYSA-N

$$$$
WHFHUCFLTHYHRI-ONEGZZNKSA-N
     RDKit          3D

 15 15  0  0  0  0  0  0  0  0999 V2000
    3.2245   12.2544   27.6042 C   0  0  0  0  0  0  0  0  0  0  0  0
    4.4334   12.5133   26.7681 C   0  0  0  0  0  0  0  0  0  0  0  0
    5.5758   11.8220   26.8862 C   0  0  0  0  0  0  0  0  0  0  0  0
    6.8208   12.1517   26.1327 C   0  0  0  0  0  0  0  0  0  0  0  0
    7.3561   10.9352   25.6318 O   0  0  0  0  0  0  0  0  0  0  0  0
    8.4797   11.0349   24.8630 C   0  0  0  0  0  0  0  0  0  0  0  0
    8.8666    9.8364   24.2655 C   0  0  0  0  0  0  0  0  0  0  0  0
    9.9586    9.7826   23.4106 C   0  0  0  0  0  0  0  0  0  0  0  0
   10.6697   10.9484   23.1331 C   0  0  0  0  0  0  0  0  0  0  0  0
   11.7372   10.8842   22.1153 C   0  0  0  0  0  0  0  0  0  0  0  0
   12.4603   12.1591   21.7604 C   0  0  0  0  0  0  0  0  0  0  0  0
   11.9789    9.8137   21.5609 O   0  0  0  0  0  0  0  0  0  0  0  0
   10.3232   12.1468   23.7585 C   0  0  0  0  0  0  0  0  0  0  0  0
    9.2372   12.1791   24.6210 C   0  0  0  0  0  0  0  0  0  0  0  0
    8.9396   13.3543   25.1929 F   0  0  0  0  0  0  0  0  0  0  0  0
  1  2  1  0
  2  3  2  0
  3  4  1  0
  4  5  1  0
  5  6  1  0
  6  7  2  0
  7  8  1  0
  8  9  2  0
  9 10  1  0
 10 11  1  0
 10 12  2  0
  9 13  1  0
 13 14  2  0
 14 15  1  0
 14  6  1  0
M  END
>  <distance_score>  (359) 
0.46963

>  <ref_pdb>  (359) 
A1775a

>  <ref_mols>  (359) 
A1775a

>  <alias>  (359) 
None

>  <original SMILES>  (359) 
C/C=C/COc1ccc(C(C)=O)cc1F

>  <inchikey>  (359) 
WHFHUCFLTHYHRI-ONEGZZNKSA-N

>  <exports>  (359) 
['/opt/xchem-fragalysis-2/maxwin/2A_HIPPO/hippo/A71EV2A_10_recipes/Recipe_1LPVPY0_poses.sdf']

>  <original ID>  (359) 
WHFHUCFLTHYHRI-ONEGZZNKSA-N

>  <energy_score>  (359) 
-20.850538

>  <tags>  (359) 
[]

>  <HIPPO ID>  (359) 
142393

>  <name>  (359) 
WHFHUCFLTHYHRI-ONEGZZNKSA-N

$$$$
WDAMNWLBOSZNFX-ONEGZZNKSA-N
     RDKit          3D

 15 15  0  0  0  0  0  0  0  0999 V2000
    3.9013   10.9386   27.8301 C   0  0  0  0  0  0  0  0  0  0  0  0
    5.1635   11.0335   27.0384 C   0  0  0  0  0  0  0  0  0  0  0  0
    5.5859   12.1597   26.4466 C   0  0  0  0  0  0  0  0  0  0  0  0
    6.8784   12.3556   25.7129 C   0  0  0  0  0  0  0  0  0  0  0  0
    7.6395   11.1589   25.6403 O   0  0  0  0  0  0  0  0  0  0  0  0
    8.7322   11.2260   24.8108 C   0  0  0  0  0  0  0  0  0  0  0  0
    9.5098   12.3570   24.5883 C   0  0  0  0  0  0  0  0  0  0  0  0
   10.5653   12.2929   23.6767 C   0  0  0  0  0  0  0  0  0  0  0  0
   10.8580   11.0883   23.0249 C   0  0  0  0  0  0  0  0  0  0  0  0
   11.8915   10.9492   21.9865 C   0  0  0  0  0  0  0  0  0  0  0  0
   12.6449   12.1755   21.5857 C   0  0  0  0  0  0  0  0  0  0  0  0
   12.0855    9.8592   21.4508 O   0  0  0  0  0  0  0  0  0  0  0  0
   10.1252    9.9503   23.2967 C   0  0  0  0  0  0  0  0  0  0  0  0
    9.0480   10.0336   24.1503 C   0  0  0  0  0  0  0  0  0  0  0  0
    8.3114    8.8804   24.3611 N   0  0  0  0  0  0  0  0  0  0  0  0
  1  2  1  0
  2  3  2  0
  3  4  1  0
  4  5  1  0
  5  6  1  0
  6  7  2  0
  7  8  1  0
  8  9  2  0
  9 10  1  0
 10 11  1  0
 10 12  2  0
  9 13  1  0
 13 14  2  0
 14 15  1  0
 14  6  1  0
M  END
>  <distance_score>  (360) 
0.808885

>  <ref_pdb>  (360) 
A1775a

>  <ref_mols>  (360) 
A1775a

>  <alias>  (360) 
None

>  <original SMILES>  (360) 
C/C=C/COc1ccc(C(C)=O)cc1N

>  <inchikey>  (360) 
WDAMNWLBOSZNFX-ONEGZZNKSA-N

>  <exports>  (360) 
['/opt/xchem-fragalysis-2/maxwin/2A_HIPPO/hippo/A71EV2A_10_recipes/Recipe_1LPVPY0_poses.sdf']

>  <original ID>  (360) 
WDAMNWLBOSZNFX-ONEGZZNKSA-N

>  <energy_score>  (360) 
-10.017377

>  <tags>  (360) 
[]

>  <HIPPO ID>  (360) 
142394

>  <name>  (360) 
WDAMNWLBOSZNFX-ONEGZZNKSA-N

$$$$
SYCMVRGLLWKSRO-HWKANZROSA-N
     RDKit          3D

 15 15  0  0  0  0  0  0  0  0999 V2000
    4.0202   12.0120   28.7067 C   0  0  0  0  0  0  0  0  0  0  0  0
    5.3079   12.3488   28.0270 C   0  0  0  0  0  0  0  0  0  0  0  0
    5.6190   11.9404   26.7875 C   0  0  0  0  0  0  0  0  0  0  0  0
    6.8883   12.2624   26.0675 C   0  0  0  0  0  0  0  0  0  0  0  0
    7.4705   11.0305   25.6672 O   0  0  0  0  0  0  0  0  0  0  0  0
    8.5614   11.0949   24.8512 C   0  0  0  0  0  0  0  0  0  0  0  0
    8.9074    9.8769   24.2740 C   0  0  0  0  0  0  0  0  0  0  0  0
    9.9795    9.7803   23.3998 C   0  0  0  0  0  0  0  0  0  0  0  0
   10.7152   10.9205   23.0734 C   0  0  0  0  0  0  0  0  0  0  0  0
   11.7697   10.7737   22.0416 C   0  0  0  0  0  0  0  0  0  0  0  0
   11.9122    9.6651   21.5254 O   0  0  0  0  0  0  0  0  0  0  0  0
   12.5895   11.9890   21.6187 C   0  0  0  0  0  0  0  0  0  0  0  0
   13.6619   11.6178   20.5864 C   0  0  0  0  0  0  0  0  0  0  0  0
   10.3967   12.1425   23.6714 C   0  0  0  0  0  0  0  0  0  0  0  0
    9.3243   12.2258   24.5679 C   0  0  0  0  0  0  0  0  0  0  0  0
  1  2  1  0
  2  3  2  0
  3  4  1  0
  4  5  1  0
  5  6  1  0
  6  7  2  0
  7  8  1  0
  8  9  2  0
  9 10  1  0
 10 11  2  0
 10 12  1  0
 12 13  1  0
  9 14  1  0
 14 15  2  0
 15  6  1  0
M  END
>  <distance_score>  (361) 
0.354673

>  <ref_pdb>  (361) 
A1775a

>  <ref_mols>  (361) 
A1775a

>  <alias>  (361) 
None

>  <original SMILES>  (361) 
C/C=C/COc1ccc(C(=O)CC)cc1

>  <inchikey>  (361) 
SYCMVRGLLWKSRO-HWKANZROSA-N

>  <exports>  (361) 
['/opt/xchem-fragalysis-2/maxwin/2A_HIPPO/hippo/A71EV2A_10_recipes/Recipe_1LPVPY0_poses.sdf']

>  <original ID>  (361) 
SYCMVRGLLWKSRO-HWKANZROSA-N

>  <energy_score>  (361) 
-15.446661

>  <tags>  (361) 
[]

>  <HIPPO ID>  (361) 
142397

>  <name>  (361) 
SYCMVRGLLWKSRO-HWKANZROSA-N

$$$$
KYWLZCULDRIGQM-NSCUHMNNSA-N
     RDKit          3D

 15 15  0  0  0  0  0  0  0  0999 V2000
    3.9460   12.1719   28.7197 C   0  0  0  0  0  0  0  0  0  0  0  0
    5.2382   12.4655   28.0297 C   0  0  0  0  0  0  0  0  0  0  0  0
    5.5592   11.9805   26.8206 C   0  0  0  0  0  0  0  0  0  0  0  0
    6.8302   12.2729   26.0928 C   0  0  0  0  0  0  0  0  0  0  0  0
    7.4044   11.0310   25.7104 O   0  0  0  0  0  0  0  0  0  0  0  0
    8.4997   11.0886   24.8989 C   0  0  0  0  0  0  0  0  0  0  0  0
    8.8416    9.8733   24.3137 C   0  0  0  0  0  0  0  0  0  0  0  0
    9.9148    9.7762   23.4413 C   0  0  0  0  0  0  0  0  0  0  0  0
   10.6550   10.9153   23.1278 C   0  0  0  0  0  0  0  0  0  0  0  0
   11.7132   10.7796   22.1005 C   0  0  0  0  0  0  0  0  0  0  0  0
   11.8818    9.6676   21.6003 O   0  0  0  0  0  0  0  0  0  0  0  0
   12.4849   12.0236   21.6986 C   0  0  0  0  0  0  0  0  0  0  0  0
   13.7143   11.6002   20.4810 Cl  0  0  0  0  0  0  0  0  0  0  0  0
   10.3427   12.1344   23.7376 C   0  0  0  0  0  0  0  0  0  0  0  0
    9.2705   12.2163   24.6301 C   0  0  0  0  0  0  0  0  0  0  0  0
  1  2  1  0
  2  3  2  0
  3  4  1  0
  4  5  1  0
  5  6  1  0
  6  7  2  0
  7  8  1  0
  8  9  2  0
  9 10  1  0
 10 11  2  0
 10 12  1  0
 12 13  1  0
  9 14  1  0
 14 15  2  0
 15  6  1  0
M  END
>  <distance_score>  (362) 
0.384678

>  <ref_pdb>  (362) 
A1775a

>  <ref_mols>  (362) 
A1775a

>  <alias>  (362) 
None

>  <original SMILES>  (362) 
C/C=C/COc1ccc(C(=O)CCl)cc1

>  <inchikey>  (362) 
KYWLZCULDRIGQM-NSCUHMNNSA-N

>  <exports>  (362) 
['/opt/xchem-fragalysis-2/maxwin/2A_HIPPO/hippo/A71EV2A_10_recipes/Recipe_1LPVPY0_poses.sdf']

>  <original ID>  (362) 
KYWLZCULDRIGQM-NSCUHMNNSA-N

>  <energy_score>  (362) 
-36.604306

>  <tags>  (362) 
[]

>  <HIPPO ID>  (362) 
142470

>  <name>  (362) 
KYWLZCULDRIGQM-NSCUHMNNSA-N

$$$$
YLVWFFDLLIUZID-UHFFFAOYSA-N
     RDKit          3D

 15 15  0  0  0  0  0  0  0  0999 V2000
   12.4767   12.1820   21.7481 C   0  0  0  0  0  0  0  0  0  0  0  0
   11.7498   10.9167   22.1167 C   0  0  0  0  0  0  0  0  0  0  0  0
   11.9829    9.8408   21.5690 O   0  0  0  0  0  0  0  0  0  0  0  0
   10.6893   10.9974   23.1400 C   0  0  0  0  0  0  0  0  0  0  0  0
   10.3550   12.1986   23.7815 C   0  0  0  0  0  0  0  0  0  0  0  0
    9.2642   12.2550   24.6516 C   0  0  0  0  0  0  0  0  0  0  0  0
    8.4980   11.1164   24.8619 C   0  0  0  0  0  0  0  0  0  0  0  0
    7.3671   11.0347   25.6183 O   0  0  0  0  0  0  0  0  0  0  0  0
    6.7981   12.2433   26.1072 C   0  0  0  0  0  0  0  0  0  0  0  0
    5.4913   11.9108   26.8135 C   0  0  0  0  0  0  0  0  0  0  0  0
    5.7499   11.1260   28.0246 C   0  0  0  0  0  0  0  0  0  0  0  0
    5.9910   10.5265   28.9880 N   0  0  0  0  0  0  0  0  0  0  0  0
    8.8841    9.9231   24.2483 C   0  0  0  0  0  0  0  0  0  0  0  0
    8.1508    8.8261   24.4300 F   0  0  0  0  0  0  0  0  0  0  0  0
    9.9697    9.8413   23.4037 C   0  0  0  0  0  0  0  0  0  0  0  0
  1  2  1  0
  2  3  2  0
  2  4  1  0
  4  5  2  0
  5  6  1  0
  6  7  2  0
  7  8  1  0
  8  9  1  0
  9 10  1  0
 10 11  1  0
 11 12  3  0
  7 13  1  0
 13 14  1  0
 13 15  2  0
 15  4  1  0
M  END
>  <distance_score>  (363) 
0.838512

>  <ref_pdb>  (363) 
A1775a

>  <ref_mols>  (363) 
A1775a

>  <alias>  (363) 
None

>  <original SMILES>  (363) 
CC(=O)c1ccc(OCCC#N)c(F)c1

>  <inchikey>  (363) 
YLVWFFDLLIUZID-UHFFFAOYSA-N

>  <exports>  (363) 
['/opt/xchem-fragalysis-2/maxwin/2A_HIPPO/hippo/A71EV2A_10_recipes/Recipe_1LPVPY0_poses.sdf']

>  <original ID>  (363) 
YLVWFFDLLIUZID-UHFFFAOYSA-N

>  <energy_score>  (363) 
-15.102979

>  <tags>  (363) 
[]

>  <HIPPO ID>  (363) 
142528

>  <name>  (363) 
YLVWFFDLLIUZID-UHFFFAOYSA-N

$$$$
ZOQKPIFQMCLGOP-UHFFFAOYSA-N
     RDKit          3D

 15 15  0  0  0  0  0  0  0  0999 V2000
   12.5836   12.2391   21.6532 C   0  0  0  0  0  0  0  0  0  0  0  0
   11.8329   11.0148   22.0581 C   0  0  0  0  0  0  0  0  0  0  0  0
   12.0393    9.9198   21.5360 O   0  0  0  0  0  0  0  0  0  0  0  0
   10.7978   11.1620   23.0956 C   0  0  0  0  0  0  0  0  0  0  0  0
   10.4832   12.3683   23.7364 C   0  0  0  0  0  0  0  0  0  0  0  0
    9.4051   12.4343   24.6276 C   0  0  0  0  0  0  0  0  0  0  0  0
    8.6451   11.2969   24.8568 C   0  0  0  0  0  0  0  0  0  0  0  0
    7.5279   11.1875   25.6376 O   0  0  0  0  0  0  0  0  0  0  0  0
    6.9036   12.3737   26.0971 C   0  0  0  0  0  0  0  0  0  0  0  0
    5.5645   12.0102   26.7268 C   0  0  0  0  0  0  0  0  0  0  0  0
    5.7529   11.1206   27.8774 C   0  0  0  0  0  0  0  0  0  0  0  0
    5.9315   10.4170   28.7825 N   0  0  0  0  0  0  0  0  0  0  0  0
    9.0262   10.0882   24.2643 C   0  0  0  0  0  0  0  0  0  0  0  0
    8.2133    8.9740   24.3661 N   0  0  0  0  0  0  0  0  0  0  0  0
   10.0768   10.0215   23.3755 C   0  0  0  0  0  0  0  0  0  0  0  0
  1  2  1  0
  2  3  2  0
  2  4  1  0
  4  5  2  0
  5  6  1  0
  6  7  2  0
  7  8  1  0
  8  9  1  0
  9 10  1  0
 10 11  1  0
 11 12  3  0
  7 13  1  0
 13 14  1  0
 13 15  2  0
 15  4  1  0
M  END
>  <distance_score>  (364) 
0.85337

>  <ref_pdb>  (364) 
A1775a

>  <ref_mols>  (364) 
A1775a

>  <alias>  (364) 
None

>  <original SMILES>  (364) 
CC(=O)c1ccc(OCCC#N)c(N)c1

>  <inchikey>  (364) 
ZOQKPIFQMCLGOP-UHFFFAOYSA-N

>  <exports>  (364) 
['/opt/xchem-fragalysis-2/maxwin/2A_HIPPO/hippo/A71EV2A_10_recipes/Recipe_1LPVPY0_poses.sdf']

>  <original ID>  (364) 
ZOQKPIFQMCLGOP-UHFFFAOYSA-N

>  <energy_score>  (364) 
-30.854407

>  <tags>  (364) 
[]

>  <HIPPO ID>  (364) 
142530

>  <name>  (364) 
ZOQKPIFQMCLGOP-UHFFFAOYSA-N

$$$$
XQDZYPLXSFLOTR-UHFFFAOYSA-N
     RDKit          3D

 15 15  0  0  0  0  0  0  0  0999 V2000
   13.6494   11.5963   20.5834 C   0  0  0  0  0  0  0  0  0  0  0  0
   12.5867   11.9931   21.6128 C   0  0  0  0  0  0  0  0  0  0  0  0
   11.7379   10.8049   22.0637 C   0  0  0  0  0  0  0  0  0  0  0  0
   11.8595    9.6778   21.5847 O   0  0  0  0  0  0  0  0  0  0  0  0
   10.6936   11.0156   23.0985 C   0  0  0  0  0  0  0  0  0  0  0  0
    9.8890    9.9248   23.4477 C   0  0  0  0  0  0  0  0  0  0  0  0
    8.8776   10.0796   24.3879 C   0  0  0  0  0  0  0  0  0  0  0  0
    8.6774   11.3140   24.9922 C   0  0  0  0  0  0  0  0  0  0  0  0
    7.7662   11.3976   26.0034 O   0  0  0  0  0  0  0  0  0  0  0  0
    6.5865   12.0948   25.6062 C   0  0  0  0  0  0  0  0  0  0  0  0
    5.6165   12.1152   26.7748 C   0  0  0  0  0  0  0  0  0  0  0  0
    5.0867   10.7717   27.0157 C   0  0  0  0  0  0  0  0  0  0  0  0
    4.6342    9.7182   27.1853 N   0  0  0  0  0  0  0  0  0  0  0  0
    9.4840   12.4006   24.6713 C   0  0  0  0  0  0  0  0  0  0  0  0
   10.4848   12.2565   23.7106 C   0  0  0  0  0  0  0  0  0  0  0  0
  1  2  1  0
  2  3  1  0
  3  4  2  0
  3  5  1  0
  5  6  2  0
  6  7  1  0
  7  8  2  0
  8  9  1  0
  9 10  1  0
 10 11  1  0
 11 12  1  0
 12 13  3  0
  8 14  1  0
 14 15  2  0
 15  5  1  0
M  END
>  <distance_score>  (365) 
0.485756

>  <ref_pdb>  (365) 
A1775a

>  <ref_mols>  (365) 
A1775a

>  <alias>  (365) 
None

>  <original SMILES>  (365) 
CCC(=O)c1ccc(OCCC#N)cc1

>  <inchikey>  (365) 
XQDZYPLXSFLOTR-UHFFFAOYSA-N

>  <exports>  (365) 
['/opt/xchem-fragalysis-2/maxwin/2A_HIPPO/hippo/A71EV2A_10_recipes/Recipe_1LPVPY0_poses.sdf']

>  <original ID>  (365) 
XQDZYPLXSFLOTR-UHFFFAOYSA-N

>  <energy_score>  (365) 
-1.904682

>  <tags>  (365) 
[]

>  <HIPPO ID>  (365) 
142533

>  <name>  (365) 
XQDZYPLXSFLOTR-UHFFFAOYSA-N

$$$$
YNUVIODWLAOWTL-UHFFFAOYSA-N
     RDKit          3D

 15 15  0  0  0  0  0  0  0  0999 V2000
    3.7522   12.6727   26.0823 N   0  0  0  0  0  0  0  0  0  0  0  0
    4.7178   12.2892   26.5894 C   0  0  0  0  0  0  0  0  0  0  0  0
    5.9522   11.9291   27.2696 C   0  0  0  0  0  0  0  0  0  0  0  0
    7.1282   12.2288   26.3600 C   0  0  0  0  0  0  0  0  0  0  0  0
    7.4829   11.0289   25.6873 O   0  0  0  0  0  0  0  0  0  0  0  0
    8.5704   11.0831   24.8693 C   0  0  0  0  0  0  0  0  0  0  0  0
    9.3425   12.2093   24.5982 C   0  0  0  0  0  0  0  0  0  0  0  0
   10.4054   12.1242   23.6998 C   0  0  0  0  0  0  0  0  0  0  0  0
   10.7034   10.9050   23.0848 C   0  0  0  0  0  0  0  0  0  0  0  0
   11.7563   10.7709   22.0555 C   0  0  0  0  0  0  0  0  0  0  0  0
   11.9240    9.6599   21.5540 O   0  0  0  0  0  0  0  0  0  0  0  0
   12.5256   12.0162   21.6564 C   0  0  0  0  0  0  0  0  0  0  0  0
   13.7603   11.5977   20.4472 Cl  0  0  0  0  0  0  0  0  0  0  0  0
    9.9553    9.7690   23.3914 C   0  0  0  0  0  0  0  0  0  0  0  0
    8.8884    9.8692   24.2688 C   0  0  0  0  0  0  0  0  0  0  0  0
  1  2  3  0
  2  3  1  0
  3  4  1  0
  4  5  1  0
  5  6  1  0
  6  7  2  0
  7  8  1  0
  8  9  2  0
  9 10  1  0
 10 11  2  0
 10 12  1  0
 12 13  1  0
  9 14  1  0
 14 15  2  0
 15  6  1  0
M  END
>  <distance_score>  (366) 
0.420419

>  <ref_pdb>  (366) 
A1775a

>  <ref_mols>  (366) 
A1775a

>  <alias>  (366) 
None

>  <original SMILES>  (366) 
N#CCCOc1ccc(C(=O)CCl)cc1

>  <inchikey>  (366) 
YNUVIODWLAOWTL-UHFFFAOYSA-N

>  <exports>  (366) 
['/opt/xchem-fragalysis-2/maxwin/2A_HIPPO/hippo/A71EV2A_10_recipes/Recipe_1LPVPY0_poses.sdf']

>  <original ID>  (366) 
YNUVIODWLAOWTL-UHFFFAOYSA-N

>  <energy_score>  (366) 
-4.821474

>  <tags>  (366) 
[]

>  <HIPPO ID>  (366) 
142585

>  <name>  (366) 
YNUVIODWLAOWTL-UHFFFAOYSA-N

$$$$
TXBBTQALJLEGAY-UHFFFAOYSA-N
     RDKit          3D

 15 16  0  0  0  0  0  0  0  0999 V2000
    3.6816   13.5898   26.0672 N   0  0  0  0  0  0  0  0  0  0  0  0
    4.5457   12.8454   26.2681 C   0  0  0  0  0  0  0  0  0  0  0  0
    5.5986   11.8667   26.5220 C   0  0  0  0  0  0  0  0  0  0  0  0
    6.8395   12.1856   25.7065 C   0  0  0  0  0  0  0  0  0  0  0  0
    7.6545   11.0171   25.6930 O   0  0  0  0  0  0  0  0  0  0  0  0
    8.6847   11.0350   24.7956 C   0  0  0  0  0  0  0  0  0  0  0  0
    8.9816    9.7856   24.2257 C   0  0  0  0  0  0  0  0  0  0  0  0
   10.0206    9.6349   23.3209 C   0  0  0  0  0  0  0  0  0  0  0  0
   10.7294   10.7704   23.0065 C   0  0  0  0  0  0  0  0  0  0  0  0
   10.4708   12.0182   23.5580 C   0  0  0  0  0  0  0  0  0  0  0  0
    9.4442   12.1642   24.4765 C   0  0  0  0  0  0  0  0  0  0  0  0
   11.4004   13.0669   23.0335 C   0  0  0  0  0  0  0  0  0  0  0  0
   12.2496   12.3457   21.9928 C   0  0  0  0  0  0  0  0  0  0  0  0
   11.7988   10.9022   22.0428 C   0  0  0  0  0  0  0  0  0  0  0  0
   12.2071    9.9609   21.3858 O   0  0  0  0  0  0  0  0  0  0  0  0
  1  2  3  0
  2  3  1  0
  3  4  1  0
  4  5  1  0
  5  6  1  0
  6  7  2  0
  7  8  1  0
  8  9  2  0
  9 10  1  0
 10 11  2  0
 10 12  1  0
 12 13  1  0
 13 14  1  0
 14 15  2  0
 11  6  1  0
 14  9  1  0
M  END
>  <distance_score>  (367) 
1.116388

>  <ref_pdb>  (367) 
A1775a

>  <ref_mols>  (367) 
A1775a

>  <alias>  (367) 
None

>  <original SMILES>  (367) 
N#CCCOc1ccc2c(c1)CCC2=O

>  <inchikey>  (367) 
TXBBTQALJLEGAY-UHFFFAOYSA-N

>  <exports>  (367) 
['/opt/xchem-fragalysis-2/maxwin/2A_HIPPO/hippo/A71EV2A_10_recipes/Recipe_1LPVPY0_poses.sdf']

>  <original ID>  (367) 
TXBBTQALJLEGAY-UHFFFAOYSA-N

>  <energy_score>  (367) 
-18.974563

>  <tags>  (367) 
[]

>  <HIPPO ID>  (367) 
142589

>  <name>  (367) 
TXBBTQALJLEGAY-UHFFFAOYSA-N

$$$$
IDXYNZFOHIINLD-NSCUHMNNSA-N
     RDKit          3D

 15 16  0  0  0  0  0  0  0  0999 V2000
    3.9243   10.7281   27.9014 C   0  0  0  0  0  0  0  0  0  0  0  0
    5.1563   10.8715   27.0708 C   0  0  0  0  0  0  0  0  0  0  0  0
    5.5818   12.0340   26.5516 C   0  0  0  0  0  0  0  0  0  0  0  0
    6.8396   12.2432   25.7582 C   0  0  0  0  0  0  0  0  0  0  0  0
    7.5127   11.0102   25.5410 O   0  0  0  0  0  0  0  0  0  0  0  0
    8.6034   11.0396   24.7185 C   0  0  0  0  0  0  0  0  0  0  0  0
    8.9697    9.7774   24.2183 C   0  0  0  0  0  0  0  0  0  0  0  0
   10.0438    9.6202   23.3558 C   0  0  0  0  0  0  0  0  0  0  0  0
   10.7172   10.7650   23.0028 C   0  0  0  0  0  0  0  0  0  0  0  0
   10.3919   12.0269   23.4810 C   0  0  0  0  0  0  0  0  0  0  0  0
    9.3333   12.1775   24.3631 C   0  0  0  0  0  0  0  0  0  0  0  0
   11.2546   13.0937   22.8827 C   0  0  0  0  0  0  0  0  0  0  0  0
   12.2306   12.3437   21.9835 C   0  0  0  0  0  0  0  0  0  0  0  0
   11.7952   10.8961   22.0483 C   0  0  0  0  0  0  0  0  0  0  0  0
   12.2194    9.9526   21.4047 O   0  0  0  0  0  0  0  0  0  0  0  0
  1  2  1  0
  2  3  2  0
  3  4  1  0
  4  5  1  0
  5  6  1  0
  6  7  2  0
  7  8  1  0
  8  9  2  0
  9 10  1  0
 10 11  2  0
 10 12  1  0
 12 13  1  0
 13 14  1  0
 14 15  2  0
 11  6  1  0
 14  9  1  0
M  END
>  <distance_score>  (368) 
1.123813

>  <ref_pdb>  (368) 
A1775a

>  <ref_mols>  (368) 
A1775a

>  <alias>  (368) 
None

>  <original SMILES>  (368) 
C/C=C/COc1ccc2c(c1)CCC2=O

>  <inchikey>  (368) 
IDXYNZFOHIINLD-NSCUHMNNSA-N

>  <exports>  (368) 
['/opt/xchem-fragalysis-2/maxwin/2A_HIPPO/hippo/A71EV2A_10_recipes/Recipe_1LPVPY0_poses.sdf']

>  <original ID>  (368) 
IDXYNZFOHIINLD-NSCUHMNNSA-N

>  <energy_score>  (368) 
-26.380011

>  <tags>  (368) 
[]

>  <HIPPO ID>  (368) 
142636

>  <name>  (368) 
IDXYNZFOHIINLD-NSCUHMNNSA-N

$$$$
UVXOHAHAHIQJCK-UHFFFAOYSA-N
     RDKit          3D

 15 16  0  0  0  0  0  0  0  0999 V2000
    4.6617   14.0723   26.7321 N   0  0  0  0  0  0  0  0  0  0  0  0
    4.4128   12.7715   26.1559 C   0  0  0  0  0  0  0  0  0  0  0  0
    5.5398   11.7996   26.4680 C   0  0  0  0  0  0  0  0  0  0  0  0
    6.8335   12.1710   25.7515 C   0  0  0  0  0  0  0  0  0  0  0  0
    7.6585   11.0084   25.7355 O   0  0  0  0  0  0  0  0  0  0  0  0
    8.6798   11.0319   24.8284 C   0  0  0  0  0  0  0  0  0  0  0  0
    8.9660    9.7890   24.2392 C   0  0  0  0  0  0  0  0  0  0  0  0
    9.9995    9.6439   23.3275 C   0  0  0  0  0  0  0  0  0  0  0  0
   10.7145   10.7791   23.0266 C   0  0  0  0  0  0  0  0  0  0  0  0
   10.4668   12.0209   23.5977 C   0  0  0  0  0  0  0  0  0  0  0  0
    9.4443   12.1608   24.5221 C   0  0  0  0  0  0  0  0  0  0  0  0
   11.4099   13.0669   23.0933 C   0  0  0  0  0  0  0  0  0  0  0  0
   12.2323   12.3609   22.0208 C   0  0  0  0  0  0  0  0  0  0  0  0
   11.7828   10.9164   22.0620 C   0  0  0  0  0  0  0  0  0  0  0  0
   12.1917    9.9796   21.3985 O   0  0  0  0  0  0  0  0  0  0  0  0
  1  2  1  0
  2  3  1  0
  3  4  1  0
  4  5  1  0
  5  6  1  0
  6  7  2  0
  7  8  1  0
  8  9  2  0
  9 10  1  0
 10 11  2  0
 10 12  1  0
 12 13  1  0
 13 14  1  0
 14 15  2  0
 11  6  1  0
 14  9  1  0
M  END
>  <distance_score>  (369) 
1.127699

>  <ref_pdb>  (369) 
A1775a

>  <ref_mols>  (369) 
A1775a

>  <alias>  (369) 
None

>  <original SMILES>  (369) 
NCCCOc1ccc2c(c1)CCC2=O

>  <inchikey>  (369) 
UVXOHAHAHIQJCK-UHFFFAOYSA-N

>  <exports>  (369) 
['/opt/xchem-fragalysis-2/maxwin/2A_HIPPO/hippo/A71EV2A_10_recipes/Recipe_1LPVPY0_poses.sdf']

>  <original ID>  (369) 
UVXOHAHAHIQJCK-UHFFFAOYSA-N

>  <energy_score>  (369) 
-22.118566

>  <tags>  (369) 
[]

>  <HIPPO ID>  (369) 
142718

>  <name>  (369) 
UVXOHAHAHIQJCK-UHFFFAOYSA-N

$$$$
YMVLCHCOIKRSQL-UHFFFAOYSA-N
     RDKit          3D

 15 15  0  0  0  0  0  0  0  0999 V2000
   11.9030    9.6505   21.5603 O   0  0  0  0  0  0  0  0  0  0  0  0
   11.6917   10.7325   22.1036 C   0  0  0  0  0  0  0  0  0  0  0  0
   12.4496   11.9991   21.7278 C   0  0  0  0  0  0  0  0  0  0  0  0
   13.6850   11.6148   20.4966 Cl  0  0  0  0  0  0  0  0  0  0  0  0
   10.6180   10.8349   23.1335 C   0  0  0  0  0  0  0  0  0  0  0  0
   10.3803   12.0446   23.8074 C   0  0  0  0  0  0  0  0  0  0  0  0
    9.3134   12.1712   24.7049 C   0  0  0  0  0  0  0  0  0  0  0  0
    8.4772   11.0882   24.9430 C   0  0  0  0  0  0  0  0  0  0  0  0
    7.3850   11.0634   25.7606 O   0  0  0  0  0  0  0  0  0  0  0  0
    6.8974   12.3232   26.2151 C   0  0  0  0  0  0  0  0  0  0  0  0
    5.5821   12.1185   26.9434 C   0  0  0  0  0  0  0  0  0  0  0  0
    4.5897   11.9952   26.0224 F   0  0  0  0  0  0  0  0  0  0  0  0
    8.7385    9.8792   24.3095 C   0  0  0  0  0  0  0  0  0  0  0  0
    9.7769    9.7507   23.3984 C   0  0  0  0  0  0  0  0  0  0  0  0
    9.8921    8.5480   22.7651 O   0  0  0  0  0  0  0  0  0  0  0  0
  1  2  2  0
  2  3  1  0
  3  4  1  0
  2  5  1  0
  5  6  2  0
  6  7  1  0
  7  8  2  0
  8  9  1  0
  9 10  1  0
 10 11  1  0
 11 12  1  0
  8 13  1  0
 13 14  2  0
 14 15  1  0
 14  5  1  0
M  END
>  <distance_score>  (370) 
0.38589

>  <ref_pdb>  (370) 
A1775a

>  <ref_mols>  (370) 
A1775a

>  <alias>  (370) 
None

>  <original SMILES>  (370) 
O=C(CCl)c1ccc(OCCF)cc1O

>  <inchikey>  (370) 
YMVLCHCOIKRSQL-UHFFFAOYSA-N

>  <exports>  (370) 
['/opt/xchem-fragalysis-2/maxwin/2A_HIPPO/hippo/A71EV2A_10_recipes/Recipe_1LPVPY0_poses.sdf']

>  <original ID>  (370) 
YMVLCHCOIKRSQL-UHFFFAOYSA-N

>  <energy_score>  (370) 
-4.655409

>  <tags>  (370) 
[]

>  <HIPPO ID>  (370) 
143626

>  <name>  (370) 
YMVLCHCOIKRSQL-UHFFFAOYSA-N

$$$$
VJPCBDRBEFXASS-UHFFFAOYSA-N
     RDKit          3D

 15 15  0  0  0  0  0  0  0  0999 V2000
   11.7559   10.0246   21.8627 O   0  0  0  0  0  0  0  0  0  0  0  0
   11.7264   11.1915   22.2412 C   0  0  0  0  0  0  0  0  0  0  0  0
   12.6030   12.2434   21.6392 C   0  0  0  0  0  0  0  0  0  0  0  0
   13.7458   11.5631   20.4633 Cl  0  0  0  0  0  0  0  0  0  0  0  0
   10.7941   11.6568   23.3164 C   0  0  0  0  0  0  0  0  0  0  0  0
   10.5979   13.0102   23.6047 C   0  0  0  0  0  0  0  0  0  0  0  0
    9.6600   13.4022   24.5653 C   0  0  0  0  0  0  0  0  0  0  0  0
    8.8671   12.4483   25.1839 C   0  0  0  0  0  0  0  0  0  0  0  0
    7.9188   12.7477   26.1028 O   0  0  0  0  0  0  0  0  0  0  0  0
    9.0507   11.1212   24.9252 C   0  0  0  0  0  0  0  0  0  0  0  0
   10.0467   10.7379   24.0370 C   0  0  0  0  0  0  0  0  0  0  0  0
   10.3151    9.4194   23.9423 O   0  0  0  0  0  0  0  0  0  0  0  0
    9.1690    8.7615   23.4423 C   0  0  0  0  0  0  0  0  0  0  0  0
    9.6535    7.9623   22.3100 C   0  0  0  0  0  0  0  0  0  0  0  0
   10.4888    7.0801   22.9138 F   0  0  0  0  0  0  0  0  0  0  0  0
  1  2  2  0
  2  3  1  0
  3  4  1  0
  2  5  1  0
  5  6  2  0
  6  7  1  0
  7  8  2  0
  8  9  1  0
  8 10  1  0
 10 11  2  0
 11 12  1  0
 12 13  1  0
 13 14  1  0
 14 15  1  0
 11  5  1  0
M  END
>  <distance_score>  (371) 
1.316159

>  <ref_pdb>  (371) 
A1775a

>  <ref_mols>  (371) 
A1775a

>  <alias>  (371) 
None

>  <original SMILES>  (371) 
O=C(CCl)c1ccc(O)cc1OCCF

>  <inchikey>  (371) 
VJPCBDRBEFXASS-UHFFFAOYSA-N

>  <exports>  (371) 
['/opt/xchem-fragalysis-2/maxwin/2A_HIPPO/hippo/A71EV2A_10_recipes/Recipe_1LPVPY0_poses.sdf']

>  <original ID>  (371) 
VJPCBDRBEFXASS-UHFFFAOYSA-N

>  <energy_score>  (371) 
-4.770705

>  <tags>  (371) 
[]

>  <HIPPO ID>  (371) 
143627

>  <name>  (371) 
VJPCBDRBEFXASS-UHFFFAOYSA-N

$$$$
RCTFMGLPMMNKPQ-UHFFFAOYSA-N
     RDKit          3D

 15 15  0  0  0  0  0  0  0  0999 V2000
   11.8703    9.6665   21.6141 O   0  0  0  0  0  0  0  0  0  0  0  0
   11.7115   10.7843   22.1030 C   0  0  0  0  0  0  0  0  0  0  0  0
   12.4933   12.0194   21.6894 C   0  0  0  0  0  0  0  0  0  0  0  0
   13.7200   11.5885   20.4760 Cl  0  0  0  0  0  0  0  0  0  0  0  0
   10.6555   10.9410   23.1315 C   0  0  0  0  0  0  0  0  0  0  0  0
    9.8992    9.8177   23.4585 C   0  0  0  0  0  0  0  0  0  0  0  0
    8.8293    9.9430   24.3330 C   0  0  0  0  0  0  0  0  0  0  0  0
    8.5003   11.1695   24.9128 C   0  0  0  0  0  0  0  0  0  0  0  0
    7.3977   11.0899   25.7155 O   0  0  0  0  0  0  0  0  0  0  0  0
    6.8589   12.3028   26.2285 C   0  0  0  0  0  0  0  0  0  0  0  0
    5.5607   12.0075   26.9547 C   0  0  0  0  0  0  0  0  0  0  0  0
    4.5533   11.9468   26.0441 F   0  0  0  0  0  0  0  0  0  0  0  0
    9.2960   12.2808   24.6230 C   0  0  0  0  0  0  0  0  0  0  0  0
    9.0605   13.5020   25.1938 O   0  0  0  0  0  0  0  0  0  0  0  0
   10.3648   12.1716   23.7288 C   0  0  0  0  0  0  0  0  0  0  0  0
  1  2  2  0
  2  3  1  0
  3  4  1  0
  2  5  1  0
  5  6  2  0
  6  7  1  0
  7  8  2  0
  8  9  1  0
  9 10  1  0
 10 11  1  0
 11 12  1  0
  8 13  1  0
 13 14  1  0
 13 15  2  0
 15  5  1  0
M  END
>  <distance_score>  (372) 
0.410108

>  <ref_pdb>  (372) 
A1775a

>  <ref_mols>  (372) 
A1775a

>  <alias>  (372) 
None

>  <original SMILES>  (372) 
O=C(CCl)c1ccc(OCCF)c(O)c1

>  <inchikey>  (372) 
RCTFMGLPMMNKPQ-UHFFFAOYSA-N

>  <exports>  (372) 
['/opt/xchem-fragalysis-2/maxwin/2A_HIPPO/hippo/A71EV2A_10_recipes/Recipe_1LPVPY0_poses.sdf']

>  <original ID>  (372) 
RCTFMGLPMMNKPQ-UHFFFAOYSA-N

>  <energy_score>  (372) 
-19.720655

>  <tags>  (372) 
[]

>  <HIPPO ID>  (372) 
143630

>  <name>  (372) 
RCTFMGLPMMNKPQ-UHFFFAOYSA-N

$$$$
HBIAEMSUKSNSCA-UHFFFAOYSA-N
     RDKit          3D

 15 15  0  0  0  0  0  0  0  0999 V2000
   11.9065    9.5654   21.5282 O   0  0  0  0  0  0  0  0  0  0  0  0
   11.7833   10.6667   22.0569 C   0  0  0  0  0  0  0  0  0  0  0  0
   12.5394   11.9272   21.6330 C   0  0  0  0  0  0  0  0  0  0  0  0
   13.7694   11.5508   20.4199 Cl  0  0  0  0  0  0  0  0  0  0  0  0
   10.7787   10.7922   23.1392 C   0  0  0  0  0  0  0  0  0  0  0  0
    9.9038    9.7407   23.4048 C   0  0  0  0  0  0  0  0  0  0  0  0
    8.8550    9.9356   24.2970 C   0  0  0  0  0  0  0  0  0  0  0  0
    8.6646   11.1794   24.8866 C   0  0  0  0  0  0  0  0  0  0  0  0
    7.5703   11.3465   25.6851 O   0  0  0  0  0  0  0  0  0  0  0  0
    9.5572   12.2245   24.6599 C   0  0  0  0  0  0  0  0  0  0  0  0
    9.2738   13.4349   25.2405 O   0  0  0  0  0  0  0  0  0  0  0  0
   10.1864   14.5150   24.9450 C   0  0  0  0  0  0  0  0  0  0  0  0
   10.0654   15.0278   23.5067 C   0  0  0  0  0  0  0  0  0  0  0  0
    8.9027   15.7106   23.3656 F   0  0  0  0  0  0  0  0  0  0  0  0
   10.6483   11.9924   23.8326 C   0  0  0  0  0  0  0  0  0  0  0  0
  1  2  2  0
  2  3  1  0
  3  4  1  0
  2  5  1  0
  5  6  2  0
  6  7  1  0
  7  8  2  0
  8  9  1  0
  8 10  1  0
 10 11  1  0
 11 12  1  0
 12 13  1  0
 13 14  1  0
 10 15  2  0
 15  5  1  0
M  END
>  <distance_score>  (373) 
0.375475

>  <ref_pdb>  (373) 
A1775a

>  <ref_mols>  (373) 
A1775a

>  <alias>  (373) 
None

>  <original SMILES>  (373) 
O=C(CCl)c1ccc(O)c(OCCF)c1

>  <inchikey>  (373) 
HBIAEMSUKSNSCA-UHFFFAOYSA-N

>  <exports>  (373) 
['/opt/xchem-fragalysis-2/maxwin/2A_HIPPO/hippo/A71EV2A_10_recipes/Recipe_1LPVPY0_poses.sdf']

>  <original ID>  (373) 
HBIAEMSUKSNSCA-UHFFFAOYSA-N

>  <energy_score>  (373) 
-18.700489

>  <tags>  (373) 
[]

>  <HIPPO ID>  (373) 
143631

>  <name>  (373) 
HBIAEMSUKSNSCA-UHFFFAOYSA-N

$$$$
PFTZBLDJERAAEF-UHFFFAOYSA-N
     RDKit          3D

 15 15  0  0  0  0  0  0  0  0999 V2000
    9.7003    8.1487   23.8516 C   0  0  0  0  0  0  0  0  0  0  0  0
    8.6332    9.0092   24.2930 O   0  0  0  0  0  0  0  0  0  0  0  0
    9.0227   10.2925   24.0431 C   0  0  0  0  0  0  0  0  0  0  0  0
    9.8519   10.4901   22.9694 C   0  0  0  0  0  0  0  0  0  0  0  0
   10.7314   11.5244   22.9697 C   0  0  0  0  0  0  0  0  0  0  0  0
   11.8430   11.2656   22.0483 C   0  0  0  0  0  0  0  0  0  0  0  0
   12.6523   12.4214   21.6591 C   0  0  0  0  0  0  0  0  0  0  0  0
   12.0609   10.1348   21.6081 O   0  0  0  0  0  0  0  0  0  0  0  0
   10.5432   12.5824   23.8487 C   0  0  0  0  0  0  0  0  0  0  0  0
    9.4847   12.5149   24.7716 C   0  0  0  0  0  0  0  0  0  0  0  0
    8.7198   11.3461   24.8857 C   0  0  0  0  0  0  0  0  0  0  0  0
    7.7324   11.1289   25.8021 O   0  0  0  0  0  0  0  0  0  0  0  0
    6.9953   12.2866   26.1665 C   0  0  0  0  0  0  0  0  0  0  0  0
    5.7161   11.8909   26.8729 C   0  0  0  0  0  0  0  0  0  0  0  0
    5.1950   13.0016   27.4615 F   0  0  0  0  0  0  0  0  0  0  0  0
  1  2  1  0
  2  3  1  0
  3  4  2  0
  4  5  1  0
  5  6  1  0
  6  7  1  0
  6  8  2  0
  5  9  2  0
  9 10  1  0
 10 11  2  0
 11 12  1  0
 12 13  1  0
 13 14  1  0
 14 15  1  0
 11  3  1  0
M  END
>  <distance_score>  (374) 
0.987341

>  <ref_pdb>  (374) 
A1775a

>  <ref_mols>  (374) 
A1775a

>  <alias>  (374) 
None

>  <original SMILES>  (374) 
COc1cc(C(C)=O)ccc1OCCF

>  <inchikey>  (374) 
PFTZBLDJERAAEF-UHFFFAOYSA-N

>  <exports>  (374) 
['/opt/xchem-fragalysis-2/maxwin/2A_HIPPO/hippo/A71EV2A_10_recipes/Recipe_1LPVPY0_poses.sdf']

>  <original ID>  (374) 
PFTZBLDJERAAEF-UHFFFAOYSA-N

>  <energy_score>  (374) 
3.574716

>  <tags>  (374) 
[]

>  <HIPPO ID>  (374) 
143761

>  <name>  (374) 
PFTZBLDJERAAEF-UHFFFAOYSA-N

$$$$
RMHYOGPORBRAIA-UHFFFAOYSA-N
     RDKit          3D

 15 15  0  0  0  0  0  0  0  0999 V2000
   13.7511   11.5864   20.5057 C   0  0  0  0  0  0  0  0  0  0  0  0
   12.6715   11.9392   21.5281 C   0  0  0  0  0  0  0  0  0  0  0  0
   11.8521   10.7201   21.9514 C   0  0  0  0  0  0  0  0  0  0  0  0
   11.9765    9.6146   21.4291 O   0  0  0  0  0  0  0  0  0  0  0  0
   10.8122   10.8669   22.9918 C   0  0  0  0  0  0  0  0  0  0  0  0
   10.0226    9.7633   23.3054 C   0  0  0  0  0  0  0  0  0  0  0  0
    8.9693    9.9040   24.2001 C   0  0  0  0  0  0  0  0  0  0  0  0
    8.6880   11.1290   24.8141 C   0  0  0  0  0  0  0  0  0  0  0  0
    7.5873   11.0431   25.6144 O   0  0  0  0  0  0  0  0  0  0  0  0
    6.9361   12.2217   26.0712 C   0  0  0  0  0  0  0  0  0  0  0  0
    5.5578   11.8556   26.5888 C   0  0  0  0  0  0  0  0  0  0  0  0
    5.6796   10.9875   27.6267 F   0  0  0  0  0  0  0  0  0  0  0  0
    9.5382   12.2071   24.5487 C   0  0  0  0  0  0  0  0  0  0  0  0
    9.4731   13.7422   25.3110 Cl  0  0  0  0  0  0  0  0  0  0  0  0
   10.5797   12.0804   23.6262 C   0  0  0  0  0  0  0  0  0  0  0  0
  1  2  1  0
  2  3  1  0
  3  4  2  0
  3  5  1  0
  5  6  2  0
  6  7  1  0
  7  8  2  0
  8  9  1  0
  9 10  1  0
 10 11  1  0
 11 12  1  0
  8 13  1  0
 13 14  1  0
 13 15  2  0
 15  5  1  0
M  END
>  <distance_score>  (375) 
0.327908

>  <ref_pdb>  (375) 
A1775a

>  <ref_mols>  (375) 
A1775a

>  <alias>  (375) 
None

>  <original SMILES>  (375) 
CCC(=O)c1ccc(OCCF)c(Cl)c1

>  <inchikey>  (375) 
RMHYOGPORBRAIA-UHFFFAOYSA-N

>  <exports>  (375) 
['/opt/xchem-fragalysis-2/maxwin/2A_HIPPO/hippo/A71EV2A_10_recipes/Recipe_1LPVPY0_poses.sdf']

>  <original ID>  (375) 
RMHYOGPORBRAIA-UHFFFAOYSA-N

>  <energy_score>  (375) 
-54.262171

>  <tags>  (375) 
[]

>  <HIPPO ID>  (375) 
143764

>  <name>  (375) 
RMHYOGPORBRAIA-UHFFFAOYSA-N

$$$$
VMYJANCFVPSGRQ-UHFFFAOYSA-N
     RDKit          3D

 16 16  0  0  0  0  0  0  0  0999 V2000
    7.7438   12.6744   26.9584 C   0  0  0  0  0  0  0  0  0  0  0  0
    6.8841   11.9709   26.2137 C   0  0  0  0  0  0  0  0  0  0  0  0
    5.4693   11.7605   26.6778 C   0  0  0  0  0  0  0  0  0  0  0  0
    4.2950   13.3776   25.9523 I   0  0  0  0  0  0  0  0  0  0  0  0
    7.1685   11.3530   25.0132 O   0  0  0  0  0  0  0  0  0  0  0  0
    8.4419   11.2912   24.5059 C   0  0  0  0  0  0  0  0  0  0  0  0
    9.1323   12.4297   24.1042 C   0  0  0  0  0  0  0  0  0  0  0  0
   10.3084   12.3091   23.3689 C   0  0  0  0  0  0  0  0  0  0  0  0
   10.7701   11.0396   23.0063 C   0  0  0  0  0  0  0  0  0  0  0  0
   11.8369   10.8407   22.0091 C   0  0  0  0  0  0  0  0  0  0  0  0
   11.9821    9.7089   21.5488 O   0  0  0  0  0  0  0  0  0  0  0  0
   12.6243   12.0540   21.5803 C   0  0  0  0  0  0  0  0  0  0  0  0
   13.8558   11.5881   20.3981 Cl  0  0  0  0  0  0  0  0  0  0  0  0
   10.1125    9.8970   23.4426 C   0  0  0  0  0  0  0  0  0  0  0  0
    8.9384   10.0404   24.1497 C   0  0  0  0  0  0  0  0  0  0  0  0
    8.1976    8.9256   24.3623 O   0  0  0  0  0  0  0  0  0  0  0  0
  1  2  2  0
  2  3  1  0
  3  4  1  0
  2  5  1  0
  5  6  1  0
  6  7  2  0
  7  8  1  0
  8  9  2  0
  9 10  1  0
 10 11  2  0
 10 12  1  0
 12 13  1  0
  9 14  1  0
 14 15  2  0
 15 16  1  0
 15  6  1  0
M  END
>  <distance_score>  (376) 
0.5425

>  <ref_pdb>  (376) 
A1775a

>  <ref_mols>  (376) 
A1775a

>  <alias>  (376) 
None

>  <original SMILES>  (376) 
C=C(CI)Oc1ccc(C(=O)CCl)cc1O

>  <inchikey>  (376) 
VMYJANCFVPSGRQ-UHFFFAOYSA-N

>  <exports>  (376) 
['/opt/xchem-fragalysis-2/maxwin/2A_HIPPO/hippo/A71EV2A_10_recipes/Recipe_1LPVPY0_poses.sdf']

>  <original ID>  (376) 
VMYJANCFVPSGRQ-UHFFFAOYSA-N

>  <energy_score>  (376) 
-83.254184

>  <tags>  (376) 
[]

>  <HIPPO ID>  (376) 
144853

>  <name>  (376) 
VMYJANCFVPSGRQ-UHFFFAOYSA-N

$$$$
GFMCYPYWPQAHLQ-UHFFFAOYSA-N
     RDKit          3D

 16 16  0  0  0  0  0  0  0  0999 V2000
    8.3657    9.1368   24.4385 C   0  0  0  0  0  0  0  0  0  0  0  0
    7.6528   10.1670   24.9099 C   0  0  0  0  0  0  0  0  0  0  0  0
    6.8036   10.5342   26.1007 C   0  0  0  0  0  0  0  0  0  0  0  0
    5.1934    9.5601   26.9923 I   0  0  0  0  0  0  0  0  0  0  0  0
    7.7086   11.2988   24.1040 O   0  0  0  0  0  0  0  0  0  0  0  0
    8.9553   11.8319   24.0771 C   0  0  0  0  0  0  0  0  0  0  0  0
    9.8439   11.3288   23.1618 C   0  0  0  0  0  0  0  0  0  0  0  0
   11.1356   11.7496   23.1754 C   0  0  0  0  0  0  0  0  0  0  0  0
   11.9437   11.1468   22.1097 C   0  0  0  0  0  0  0  0  0  0  0  0
   11.8044    9.9653   21.8062 O   0  0  0  0  0  0  0  0  0  0  0  0
   12.8096   12.1453   21.4446 C   0  0  0  0  0  0  0  0  0  0  0  0
   13.9175   11.4611   20.2984 Cl  0  0  0  0  0  0  0  0  0  0  0  0
   11.5379   12.7486   24.0673 C   0  0  0  0  0  0  0  0  0  0  0  0
   10.6264   13.2725   24.9835 C   0  0  0  0  0  0  0  0  0  0  0  0
    9.3356   12.7757   25.0049 C   0  0  0  0  0  0  0  0  0  0  0  0
    8.4344   13.1478   25.9525 O   0  0  0  0  0  0  0  0  0  0  0  0
  1  2  2  0
  2  3  1  0
  3  4  1  0
  2  5  1  0
  5  6  1  0
  6  7  2  0
  7  8  1  0
  8  9  1  0
  9 10  2  0
  9 11  1  0
 11 12  1  0
  8 13  2  0
 13 14  1  0
 14 15  2  0
 15 16  1  0
 15  6  1  0
M  END
>  <distance_score>  (377) 
1.621621

>  <ref_pdb>  (377) 
A1775a

>  <ref_mols>  (377) 
A1775a

>  <alias>  (377) 
None

>  <original SMILES>  (377) 
C=C(CI)Oc1cc(C(=O)CCl)ccc1O

>  <inchikey>  (377) 
GFMCYPYWPQAHLQ-UHFFFAOYSA-N

>  <exports>  (377) 
['/opt/xchem-fragalysis-2/maxwin/2A_HIPPO/hippo/A71EV2A_10_recipes/Recipe_1LPVPY0_poses.sdf']

>  <original ID>  (377) 
GFMCYPYWPQAHLQ-UHFFFAOYSA-N

>  <energy_score>  (377) 
25.786032

>  <tags>  (377) 
[]

>  <HIPPO ID>  (377) 
144854

>  <name>  (377) 
GFMCYPYWPQAHLQ-UHFFFAOYSA-N

$$$$
GSRNVMUFKXMOKX-UHFFFAOYSA-N
     RDKit          3D

 16 16  0  0  0  0  0  0  0  0999 V2000
    6.2936   12.8919   24.8272 C   0  0  0  0  0  0  0  0  0  0  0  0
    6.4882   11.9999   25.8114 C   0  0  0  0  0  0  0  0  0  0  0  0
    5.4104   11.7382   26.8361 C   0  0  0  0  0  0  0  0  0  0  0  0
    6.0502   12.2701   28.7889 I   0  0  0  0  0  0  0  0  0  0  0  0
    7.5689   11.1400   25.9221 O   0  0  0  0  0  0  0  0  0  0  0  0
    8.5842   11.1508   25.0044 C   0  0  0  0  0  0  0  0  0  0  0  0
    8.8368    9.9613   24.3350 C   0  0  0  0  0  0  0  0  0  0  0  0
    9.8860    9.8808   23.4320 C   0  0  0  0  0  0  0  0  0  0  0  0
   10.6903   11.0005   23.1798 C   0  0  0  0  0  0  0  0  0  0  0  0
   11.7243   10.8379   22.1247 C   0  0  0  0  0  0  0  0  0  0  0  0
   11.8550    9.7158   21.6288 O   0  0  0  0  0  0  0  0  0  0  0  0
   12.5184   12.0521   21.6815 C   0  0  0  0  0  0  0  0  0  0  0  0
   13.7214   11.5823   20.4510 Cl  0  0  0  0  0  0  0  0  0  0  0  0
   10.4533   12.1836   23.8930 C   0  0  0  0  0  0  0  0  0  0  0  0
   11.2340   13.2892   23.7170 O   0  0  0  0  0  0  0  0  0  0  0  0
    9.4137   12.2531   24.8202 C   0  0  0  0  0  0  0  0  0  0  0  0
  1  2  2  0
  2  3  1  0
  3  4  1  0
  2  5  1  0
  5  6  1  0
  6  7  2  0
  7  8  1  0
  8  9  2  0
  9 10  1  0
 10 11  2  0
 10 12  1  0
 12 13  1  0
  9 14  1  0
 14 15  1  0
 14 16  2  0
 16  6  1  0
M  END
>  <distance_score>  (378) 
0.47013

>  <ref_pdb>  (378) 
A1775a

>  <ref_mols>  (378) 
A1775a

>  <alias>  (378) 
None

>  <original SMILES>  (378) 
C=C(CI)Oc1ccc(C(=O)CCl)c(O)c1

>  <inchikey>  (378) 
GSRNVMUFKXMOKX-UHFFFAOYSA-N

>  <exports>  (378) 
['/opt/xchem-fragalysis-2/maxwin/2A_HIPPO/hippo/A71EV2A_10_recipes/Recipe_1LPVPY0_poses.sdf']

>  <original ID>  (378) 
GSRNVMUFKXMOKX-UHFFFAOYSA-N

>  <energy_score>  (378) 
-36.97187

>  <tags>  (378) 
[]

>  <HIPPO ID>  (378) 
144884

>  <name>  (378) 
GSRNVMUFKXMOKX-UHFFFAOYSA-N

$$$$
KQUSDPDOLYGIEG-UHFFFAOYSA-N
     RDKit          3D

 16 16  0  0  0  0  0  0  0  0999 V2000
    7.9473   12.7995   26.7786 C   0  0  0  0  0  0  0  0  0  0  0  0
    7.0954   12.1175   26.0060 C   0  0  0  0  0  0  0  0  0  0  0  0
    5.7665   11.5338   26.4310 C   0  0  0  0  0  0  0  0  0  0  0  0
    5.4670   11.2747   28.5271 I   0  0  0  0  0  0  0  0  0  0  0  0
    7.3324   11.9509   24.6461 O   0  0  0  0  0  0  0  0  0  0  0  0
    8.6277   11.7780   24.2133 C   0  0  0  0  0  0  0  0  0  0  0  0
    9.3314   12.8565   23.6978 C   0  0  0  0  0  0  0  0  0  0  0  0
   10.5241   12.6228   23.0164 C   0  0  0  0  0  0  0  0  0  0  0  0
   10.9837   11.3092   22.8401 C   0  0  0  0  0  0  0  0  0  0  0  0
   12.0115   10.9333   21.8578 C   0  0  0  0  0  0  0  0  0  0  0  0
   12.0756    9.7691   21.4718 O   0  0  0  0  0  0  0  0  0  0  0  0
   12.8834   12.0346   21.3414 C   0  0  0  0  0  0  0  0  0  0  0  0
   13.9508   11.5710   20.3739 C   0  0  0  0  0  0  0  0  0  0  0  0
   10.3453   10.2508   23.4400 C   0  0  0  0  0  0  0  0  0  0  0  0
    9.1587   10.5004   24.0794 C   0  0  0  0  0  0  0  0  0  0  0  0
    8.2929    9.1356   24.4787 Cl  0  0  0  0  0  0  0  0  0  0  0  0
  1  2  2  0
  2  3  1  0
  3  4  1  0
  2  5  1  0
  5  6  1  0
  6  7  2  0
  7  8  1  0
  8  9  2  0
  9 10  1  0
 10 11  2  0
 10 12  1  0
 12 13  1  0
  9 14  1  0
 14 15  2  0
 15 16  1  0
 15  6  1  0
M  END
>  <distance_score>  (379) 
0.849884

>  <ref_pdb>  (379) 
A1775a

>  <ref_mols>  (379) 
A1775a

>  <alias>  (379) 
None

>  <original SMILES>  (379) 
C=C(CI)Oc1ccc(C(=O)CC)cc1Cl

>  <inchikey>  (379) 
KQUSDPDOLYGIEG-UHFFFAOYSA-N

>  <exports>  (379) 
['/opt/xchem-fragalysis-2/maxwin/2A_HIPPO/hippo/A71EV2A_10_recipes/Recipe_1LPVPY0_poses.sdf']

>  <original ID>  (379) 
KQUSDPDOLYGIEG-UHFFFAOYSA-N

>  <energy_score>  (379) 
1.878155

>  <tags>  (379) 
[]

>  <HIPPO ID>  (379) 
145001

>  <name>  (379) 
KQUSDPDOLYGIEG-UHFFFAOYSA-N

$$$$
SVBBVZOTDOOUHE-UHFFFAOYSA-N
     RDKit          3D

 16 16  0  0  0  0  0  0  0  0999 V2000
    6.3472   12.8208   24.7972 C   0  0  0  0  0  0  0  0  0  0  0  0
    6.6701   11.9644   25.7807 C   0  0  0  0  0  0  0  0  0  0  0  0
    5.6221   11.4694   26.7460 C   0  0  0  0  0  0  0  0  0  0  0  0
    5.9989   12.1403   28.7258 I   0  0  0  0  0  0  0  0  0  0  0  0
    7.9163   11.3721   25.9507 O   0  0  0  0  0  0  0  0  0  0  0  0
    8.8364   11.4674   24.9445 C   0  0  0  0  0  0  0  0  0  0  0  0
    9.6580   12.5958   24.8261 C   0  0  0  0  0  0  0  0  0  0  0  0
   10.6832   12.6172   23.8706 C   0  0  0  0  0  0  0  0  0  0  0  0
   10.7837   11.5549   22.9799 C   0  0  0  0  0  0  0  0  0  0  0  0
   11.8629   11.2454   22.0338 C   0  0  0  0  0  0  0  0  0  0  0  0
   12.6876   12.3738   21.5976 C   0  0  0  0  0  0  0  0  0  0  0  0
   12.0428   10.1005   21.6147 O   0  0  0  0  0  0  0  0  0  0  0  0
    9.8493   10.5660   22.9959 C   0  0  0  0  0  0  0  0  0  0  0  0
    9.0404   10.3999   24.0915 C   0  0  0  0  0  0  0  0  0  0  0  0
    8.6048    9.1338   24.3589 O   0  0  0  0  0  0  0  0  0  0  0  0
    9.6096    8.2251   23.8636 C   0  0  0  0  0  0  0  0  0  0  0  0
  1  2  2  0
  2  3  1  0
  3  4  1  0
  2  5  1  0
  5  6  1  0
  6  7  2  0
  7  8  1  0
  8  9  2  0
  9 10  1  0
 10 11  1  0
 10 12  2  0
  9 13  1  0
 13 14  2  0
 14 15  1  0
 15 16  1  0
 14  6  1  0
M  END
>  <distance_score>  (380) 
0.783549

>  <ref_pdb>  (380) 
A1775a

>  <ref_mols>  (380) 
A1775a

>  <alias>  (380) 
None

>  <original SMILES>  (380) 
C=C(CI)Oc1ccc(C(C)=O)cc1OC

>  <inchikey>  (380) 
SVBBVZOTDOOUHE-UHFFFAOYSA-N

>  <exports>  (380) 
['/opt/xchem-fragalysis-2/maxwin/2A_HIPPO/hippo/A71EV2A_10_recipes/Recipe_1LPVPY0_poses.sdf']

>  <original ID>  (380) 
SVBBVZOTDOOUHE-UHFFFAOYSA-N

>  <energy_score>  (380) 
7.495014

>  <tags>  (380) 
[]

>  <HIPPO ID>  (380) 
146003

>  <name>  (380) 
SVBBVZOTDOOUHE-UHFFFAOYSA-N

$$$$
ANLPAGZHBUWNFP-UHFFFAOYSA-N
     RDKit          3D

 16 16  0  0  0  0  0  0  0  0999 V2000
   10.4993   14.9794   26.8341 C   0  0  0  0  0  0  0  0  0  0  0  0
   10.8347   14.9465   25.5435 C   0  0  0  0  0  0  0  0  0  0  0  0
   12.6135   15.2129   25.0632 Br  0  0  0  0  0  0  0  0  0  0  0  0
    9.8944   14.6476   24.4265 C   0  0  0  0  0  0  0  0  0  0  0  0
    9.0276   13.5643   24.8092 O   0  0  0  0  0  0  0  0  0  0  0  0
    9.3987   12.3075   24.4090 C   0  0  0  0  0  0  0  0  0  0  0  0
   10.5082   12.0652   23.6109 C   0  0  0  0  0  0  0  0  0  0  0  0
   10.7505   10.8115   23.0660 C   0  0  0  0  0  0  0  0  0  0  0  0
   11.7934   10.6651   22.0246 C   0  0  0  0  0  0  0  0  0  0  0  0
   11.9304    9.5534   21.5215 O   0  0  0  0  0  0  0  0  0  0  0  0
   12.5674   11.9185   21.6070 C   0  0  0  0  0  0  0  0  0  0  0  0
   13.8055   11.5364   20.4080 Cl  0  0  0  0  0  0  0  0  0  0  0  0
    9.9451    9.7353   23.4269 C   0  0  0  0  0  0  0  0  0  0  0  0
    8.8737    9.9449   24.2922 C   0  0  0  0  0  0  0  0  0  0  0  0
    8.5924   11.2265   24.7681 C   0  0  0  0  0  0  0  0  0  0  0  0
    7.5149   11.4283   25.5855 O   0  0  0  0  0  0  0  0  0  0  0  0
  1  2  2  0
  2  3  1  0
  2  4  1  0
  4  5  1  0
  5  6  1  0
  6  7  2  0
  7  8  1  0
  8  9  1  0
  9 10  2  0
  9 11  1  0
 11 12  1  0
  8 13  2  0
 13 14  1  0
 14 15  2  0
 15 16  1  0
 15  6  1  0
M  END
>  <distance_score>  (381) 
0.384116

>  <ref_pdb>  (381) 
A1775a

>  <ref_mols>  (381) 
A1775a

>  <alias>  (381) 
None

>  <original SMILES>  (381) 
C=C(Br)COc1cc(C(=O)CCl)ccc1O

>  <inchikey>  (381) 
ANLPAGZHBUWNFP-UHFFFAOYSA-N

>  <exports>  (381) 
['/opt/xchem-fragalysis-2/maxwin/2A_HIPPO/hippo/A71EV2A_10_recipes/Recipe_1LPVPY0_poses.sdf']

>  <original ID>  (381) 
ANLPAGZHBUWNFP-UHFFFAOYSA-N

>  <energy_score>  (381) 
-4.795365

>  <tags>  (381) 
[]

>  <HIPPO ID>  (381) 
146341

>  <name>  (381) 
ANLPAGZHBUWNFP-UHFFFAOYSA-N

$$$$
LCDIBTLBOZVGON-UHFFFAOYSA-N
     RDKit          3D

 16 16  0  0  0  0  0  0  0  0999 V2000
    5.2061   10.9017   27.4649 C   0  0  0  0  0  0  0  0  0  0  0  0
    5.3599   11.9228   26.6093 C   0  0  0  0  0  0  0  0  0  0  0  0
    4.1237   13.3335   26.5730 Br  0  0  0  0  0  0  0  0  0  0  0  0
    6.4868   12.0890   25.6254 C   0  0  0  0  0  0  0  0  0  0  0  0
    7.5838   11.2354   25.9696 O   0  0  0  0  0  0  0  0  0  0  0  0
    8.5520   11.2017   25.0072 C   0  0  0  0  0  0  0  0  0  0  0  0
    8.8013    9.9834   24.3906 C   0  0  0  0  0  0  0  0  0  0  0  0
    9.8348    9.8650   23.4691 C   0  0  0  0  0  0  0  0  0  0  0  0
   10.6149   10.9807   23.1435 C   0  0  0  0  0  0  0  0  0  0  0  0
   11.6742   10.8088   22.1206 C   0  0  0  0  0  0  0  0  0  0  0  0
   11.8272    9.6852   21.6415 O   0  0  0  0  0  0  0  0  0  0  0  0
   12.4701   12.0356   21.7075 C   0  0  0  0  0  0  0  0  0  0  0  0
   13.6943   11.5877   20.4939 Cl  0  0  0  0  0  0  0  0  0  0  0  0
   10.3699   12.2070   23.7677 C   0  0  0  0  0  0  0  0  0  0  0  0
    9.3598   12.2966   24.7154 C   0  0  0  0  0  0  0  0  0  0  0  0
    9.2282   13.4781   25.3837 O   0  0  0  0  0  0  0  0  0  0  0  0
  1  2  2  0
  2  3  1  0
  2  4  1  0
  4  5  1  0
  5  6  1  0
  6  7  2  0
  7  8  1  0
  8  9  2  0
  9 10  1  0
 10 11  2  0
 10 12  1  0
 12 13  1  0
  9 14  1  0
 14 15  2  0
 15 16  1  0
 15  6  1  0
M  END
>  <distance_score>  (382) 
0.483013

>  <ref_pdb>  (382) 
A1775a

>  <ref_mols>  (382) 
A1775a

>  <alias>  (382) 
None

>  <original SMILES>  (382) 
C=C(Br)COc1ccc(C(=O)CCl)cc1O

>  <inchikey>  (382) 
LCDIBTLBOZVGON-UHFFFAOYSA-N

>  <exports>  (382) 
['/opt/xchem-fragalysis-2/maxwin/2A_HIPPO/hippo/A71EV2A_10_recipes/Recipe_1LPVPY0_poses.sdf']

>  <original ID>  (382) 
LCDIBTLBOZVGON-UHFFFAOYSA-N

>  <energy_score>  (382) 
-21.624463

>  <tags>  (382) 
[]

>  <HIPPO ID>  (382) 
146342

>  <name>  (382) 
LCDIBTLBOZVGON-UHFFFAOYSA-N

$$$$
HEOVOPBLTWANNA-UHFFFAOYSA-N
     RDKit          3D

 16 16  0  0  0  0  0  0  0  0999 V2000
    4.5653   13.0334   26.8554 C   0  0  0  0  0  0  0  0  0  0  0  0
    5.4772   12.0535   26.7830 C   0  0  0  0  0  0  0  0  0  0  0  0
    5.0810   10.3534   27.4555 Br  0  0  0  0  0  0  0  0  0  0  0  0
    6.8321   12.2488   26.1519 C   0  0  0  0  0  0  0  0  0  0  0  0
    7.3413   11.0236   25.6442 O   0  0  0  0  0  0  0  0  0  0  0  0
    8.4674   11.0628   24.8834 C   0  0  0  0  0  0  0  0  0  0  0  0
    9.2997   12.1517   24.6692 C   0  0  0  0  0  0  0  0  0  0  0  0
   10.3837   12.0324   23.7908 C   0  0  0  0  0  0  0  0  0  0  0  0
   10.6368   10.8257   23.1150 C   0  0  0  0  0  0  0  0  0  0  0  0
   11.7125   10.7325   22.0881 C   0  0  0  0  0  0  0  0  0  0  0  0
   11.9287    9.6532   21.5415 O   0  0  0  0  0  0  0  0  0  0  0  0
   12.4648   12.0020   21.7158 C   0  0  0  0  0  0  0  0  0  0  0  0
   13.7013   11.6203   20.4852 Cl  0  0  0  0  0  0  0  0  0  0  0  0
    9.8035    9.7336   23.3677 C   0  0  0  0  0  0  0  0  0  0  0  0
    9.9280    8.5352   22.7296 O   0  0  0  0  0  0  0  0  0  0  0  0
    8.7544    9.8531   24.2634 C   0  0  0  0  0  0  0  0  0  0  0  0
  1  2  2  0
  2  3  1  0
  2  4  1  0
  4  5  1  0
  5  6  1  0
  6  7  2  0
  7  8  1  0
  8  9  2  0
  9 10  1  0
 10 11  2  0
 10 12  1  0
 12 13  1  0
  9 14  1  0
 14 15  1  0
 14 16  2  0
 16  6  1  0
M  END
>  <distance_score>  (383) 
0.36559

>  <ref_pdb>  (383) 
A1775a

>  <ref_mols>  (383) 
A1775a

>  <alias>  (383) 
None

>  <original SMILES>  (383) 
C=C(Br)COc1ccc(C(=O)CCl)c(O)c1

>  <inchikey>  (383) 
HEOVOPBLTWANNA-UHFFFAOYSA-N

>  <exports>  (383) 
['/opt/xchem-fragalysis-2/maxwin/2A_HIPPO/hippo/A71EV2A_10_recipes/Recipe_1LPVPY0_poses.sdf']

>  <original ID>  (383) 
HEOVOPBLTWANNA-UHFFFAOYSA-N

>  <energy_score>  (383) 
-14.959734

>  <tags>  (383) 
[]

>  <HIPPO ID>  (383) 
146366

>  <name>  (383) 
HEOVOPBLTWANNA-UHFFFAOYSA-N

$$$$
LFFDOAUEQOYWAZ-UHFFFAOYSA-N
     RDKit          3D

 16 16  0  0  0  0  0  0  0  0999 V2000
    4.5559   12.4902   26.1911 C   0  0  0  0  0  0  0  0  0  0  0  0
    5.7242   12.1893   26.7691 C   0  0  0  0  0  0  0  0  0  0  0  0
    5.7999   11.7807   28.5899 Br  0  0  0  0  0  0  0  0  0  0  0  0
    7.0443   12.3760   26.0803 C   0  0  0  0  0  0  0  0  0  0  0  0
    7.6467   11.1398   25.7246 O   0  0  0  0  0  0  0  0  0  0  0  0
    8.7204   11.1894   24.8698 C   0  0  0  0  0  0  0  0  0  0  0  0
    8.9595    9.9558   24.2542 C   0  0  0  0  0  0  0  0  0  0  0  0
    9.9919    9.7889   23.3342 C   0  0  0  0  0  0  0  0  0  0  0  0
   10.7998   10.8728   22.9949 C   0  0  0  0  0  0  0  0  0  0  0  0
   11.8387   10.7069   21.9544 C   0  0  0  0  0  0  0  0  0  0  0  0
   11.9634    9.5925   21.4528 O   0  0  0  0  0  0  0  0  0  0  0  0
   12.6665   11.9213   21.5214 C   0  0  0  0  0  0  0  0  0  0  0  0
   13.7462   11.5679   20.5018 C   0  0  0  0  0  0  0  0  0  0  0  0
   10.5973   12.0962   23.6159 C   0  0  0  0  0  0  0  0  0  0  0  0
    9.5830   12.2530   24.5614 C   0  0  0  0  0  0  0  0  0  0  0  0
    9.5839   13.8132   25.2843 Cl  0  0  0  0  0  0  0  0  0  0  0  0
  1  2  2  0
  2  3  1  0
  2  4  1  0
  4  5  1  0
  5  6  1  0
  6  7  2  0
  7  8  1  0
  8  9  2  0
  9 10  1  0
 10 11  2  0
 10 12  1  0
 12 13  1  0
  9 14  1  0
 14 15  2  0
 15 16  1  0
 15  6  1  0
M  END
>  <distance_score>  (384) 
0.344395

>  <ref_pdb>  (384) 
A1775a

>  <ref_mols>  (384) 
A1775a

>  <alias>  (384) 
None

>  <original SMILES>  (384) 
C=C(Br)COc1ccc(C(=O)CC)cc1Cl

>  <inchikey>  (384) 
LFFDOAUEQOYWAZ-UHFFFAOYSA-N

>  <exports>  (384) 
['/opt/xchem-fragalysis-2/maxwin/2A_HIPPO/hippo/A71EV2A_10_recipes/Recipe_1LPVPY0_poses.sdf']

>  <original ID>  (384) 
LFFDOAUEQOYWAZ-UHFFFAOYSA-N

>  <energy_score>  (384) 
-9.915964

>  <tags>  (384) 
[]

>  <HIPPO ID>  (384) 
146542

>  <name>  (384) 
LFFDOAUEQOYWAZ-UHFFFAOYSA-N

$$$$
PFSCASRROUBBOO-UHFFFAOYSA-N
     RDKit          3D

 16 16  0  0  0  0  0  0  0  0999 V2000
    5.1956   10.5771   26.9214 C   0  0  0  0  0  0  0  0  0  0  0  0
    5.7245   11.8063   26.9743 C   0  0  0  0  0  0  0  0  0  0  0  0
    4.9653   13.1032   28.0930 Br  0  0  0  0  0  0  0  0  0  0  0  0
    6.9577   12.2512   26.2306 C   0  0  0  0  0  0  0  0  0  0  0  0
    7.7306   11.1228   25.8281 O   0  0  0  0  0  0  0  0  0  0  0  0
    8.6996   11.3573   24.9006 C   0  0  0  0  0  0  0  0  0  0  0  0
    9.4526   12.5320   24.7839 C   0  0  0  0  0  0  0  0  0  0  0  0
   10.5112   12.6041   23.8601 C   0  0  0  0  0  0  0  0  0  0  0  0
   10.7082   11.5452   22.9831 C   0  0  0  0  0  0  0  0  0  0  0  0
   11.8249   11.2863   22.0671 C   0  0  0  0  0  0  0  0  0  0  0  0
   12.6367   12.4415   21.6822 C   0  0  0  0  0  0  0  0  0  0  0  0
   12.0457   10.1554   21.6281 O   0  0  0  0  0  0  0  0  0  0  0  0
    9.8340   10.5068   22.9820 C   0  0  0  0  0  0  0  0  0  0  0  0
    9.0081   10.3047   24.0566 C   0  0  0  0  0  0  0  0  0  0  0  0
    8.6277    9.0177   24.3063 O   0  0  0  0  0  0  0  0  0  0  0  0
    9.6951    8.1600   23.8578 C   0  0  0  0  0  0  0  0  0  0  0  0
  1  2  2  0
  2  3  1  0
  2  4  1  0
  4  5  1  0
  5  6  1  0
  6  7  2  0
  7  8  1  0
  8  9  2  0
  9 10  1  0
 10 11  1  0
 10 12  2  0
  9 13  1  0
 13 14  2  0
 14 15  1  0
 15 16  1  0
 14  6  1  0
M  END
>  <distance_score>  (385) 
0.742202

>  <ref_pdb>  (385) 
A1775a

>  <ref_mols>  (385) 
A1775a

>  <alias>  (385) 
None

>  <original SMILES>  (385) 
C=C(Br)COc1ccc(C(C)=O)cc1OC

>  <inchikey>  (385) 
PFSCASRROUBBOO-UHFFFAOYSA-N

>  <exports>  (385) 
['/opt/xchem-fragalysis-2/maxwin/2A_HIPPO/hippo/A71EV2A_10_recipes/Recipe_1LPVPY0_poses.sdf']

>  <original ID>  (385) 
PFSCASRROUBBOO-UHFFFAOYSA-N

>  <energy_score>  (385) 
3.899472

>  <tags>  (385) 
[]

>  <HIPPO ID>  (385) 
146556

>  <name>  (385) 
PFSCASRROUBBOO-UHFFFAOYSA-N

$$$$
GYIZZRKRFWRSLL-UHFFFAOYSA-N
     RDKit          3D

 16 17  0  0  0  0  0  0  0  0999 V2000
    3.4615   10.9963   28.0616 C   0  0  0  0  0  0  0  0  0  0  0  0
    3.6361   12.0212   27.0934 O   0  0  0  0  0  0  0  0  0  0  0  0
    4.8328   11.8763   26.3329 C   0  0  0  0  0  0  0  0  0  0  0  0
    6.0568   12.2769   27.1284 C   0  0  0  0  0  0  0  0  0  0  0  0
    7.2602   12.3993   26.2106 C   0  0  0  0  0  0  0  0  0  0  0  0
    7.6381   11.1199   25.7182 O   0  0  0  0  0  0  0  0  0  0  0  0
    8.6939   11.1049   24.8444 C   0  0  0  0  0  0  0  0  0  0  0  0
    8.9289    9.8521   24.2519 C   0  0  0  0  0  0  0  0  0  0  0  0
    9.9580    9.6625   23.3391 C   0  0  0  0  0  0  0  0  0  0  0  0
   10.7218   10.7649   23.0330 C   0  0  0  0  0  0  0  0  0  0  0  0
   10.5295   12.0135   23.6059 C   0  0  0  0  0  0  0  0  0  0  0  0
    9.5133   12.1962   24.5293 C   0  0  0  0  0  0  0  0  0  0  0  0
   11.5186   13.0208   23.1091 C   0  0  0  0  0  0  0  0  0  0  0  0
   12.2642   12.3032   21.9906 C   0  0  0  0  0  0  0  0  0  0  0  0
   11.7826   10.8682   22.0542 C   0  0  0  0  0  0  0  0  0  0  0  0
   12.1619    9.9173   21.3937 O   0  0  0  0  0  0  0  0  0  0  0  0
  1  2  1  0
  2  3  1  0
  3  4  1  0
  4  5  1  0
  5  6  1  0
  6  7  1  0
  7  8  2  0
  8  9  1  0
  9 10  2  0
 10 11  1  0
 11 12  2  0
 11 13  1  0
 13 14  1  0
 14 15  1  0
 15 16  2  0
 12  7  1  0
 15 10  1  0
M  END
>  <distance_score>  (386) 
1.11207

>  <ref_pdb>  (386) 
A1775a

>  <ref_mols>  (386) 
A1775a

>  <alias>  (386) 
None

>  <original SMILES>  (386) 
COCCCOc1ccc2c(c1)CCC2=O

>  <inchikey>  (386) 
GYIZZRKRFWRSLL-UHFFFAOYSA-N

>  <exports>  (386) 
['/opt/xchem-fragalysis-2/maxwin/2A_HIPPO/hippo/A71EV2A_10_recipes/Recipe_1LPVPY0_poses.sdf']

>  <original ID>  (386) 
GYIZZRKRFWRSLL-UHFFFAOYSA-N

>  <energy_score>  (386) 
-18.880363

>  <tags>  (386) 
[]

>  <HIPPO ID>  (386) 
146626

>  <name>  (386) 
GYIZZRKRFWRSLL-UHFFFAOYSA-N

$$$$
DQVMDTNTBZRTTH-UHFFFAOYSA-N
     RDKit          3D

 16 16  0  0  0  0  0  0  0  0999 V2000
    3.5703   10.3644   28.1203 C   0  0  0  0  0  0  0  0  0  0  0  0
    3.6511   11.5638   27.3597 O   0  0  0  0  0  0  0  0  0  0  0  0
    4.8045   11.6128   26.5268 C   0  0  0  0  0  0  0  0  0  0  0  0
    5.9901   12.1649   27.2868 C   0  0  0  0  0  0  0  0  0  0  0  0
    7.1548   12.3779   26.3418 C   0  0  0  0  0  0  0  0  0  0  0  0
    7.5502   11.1275   25.7934 O   0  0  0  0  0  0  0  0  0  0  0  0
    8.6010   11.1569   24.9247 C   0  0  0  0  0  0  0  0  0  0  0  0
    8.8843    9.9351   24.3217 C   0  0  0  0  0  0  0  0  0  0  0  0
    9.9322    9.8133   23.4215 C   0  0  0  0  0  0  0  0  0  0  0  0
   10.6954   10.9346   23.0957 C   0  0  0  0  0  0  0  0  0  0  0  0
   11.7441   10.7798   22.0638 C   0  0  0  0  0  0  0  0  0  0  0  0
   11.8975    9.6637   21.5695 O   0  0  0  0  0  0  0  0  0  0  0  0
   12.5252   12.0161   21.6563 C   0  0  0  0  0  0  0  0  0  0  0  0
   13.7562   11.5879   20.4490 Cl  0  0  0  0  0  0  0  0  0  0  0  0
   10.4239   12.1628   23.7040 C   0  0  0  0  0  0  0  0  0  0  0  0
    9.3819   12.2697   24.6229 C   0  0  0  0  0  0  0  0  0  0  0  0
  1  2  1  0
  2  3  1  0
  3  4  1  0
  4  5  1  0
  5  6  1  0
  6  7  1  0
  7  8  2  0
  8  9  1  0
  9 10  2  0
 10 11  1  0
 11 12  2  0
 11 13  1  0
 13 14  1  0
 10 15  1  0
 15 16  2  0
 16  7  1  0
M  END
>  <distance_score>  (387) 
0.444644

>  <ref_pdb>  (387) 
A1775a

>  <ref_mols>  (387) 
A1775a

>  <alias>  (387) 
None

>  <original SMILES>  (387) 
COCCCOc1ccc(C(=O)CCl)cc1

>  <inchikey>  (387) 
DQVMDTNTBZRTTH-UHFFFAOYSA-N

>  <exports>  (387) 
['/opt/xchem-fragalysis-2/maxwin/2A_HIPPO/hippo/A71EV2A_10_recipes/Recipe_1LPVPY0_poses.sdf']

>  <original ID>  (387) 
DQVMDTNTBZRTTH-UHFFFAOYSA-N

>  <energy_score>  (387) 
-40.854129

>  <tags>  (387) 
[]

>  <HIPPO ID>  (387) 
146630

>  <name>  (387) 
DQVMDTNTBZRTTH-UHFFFAOYSA-N

$$$$
VHBPFCUOFQAYGZ-UHFFFAOYSA-N
     RDKit          3D

 16 16  0  0  0  0  0  0  0  0999 V2000
   13.6643   11.6213   20.5829 C   0  0  0  0  0  0  0  0  0  0  0  0
   12.5920   11.9903   21.6164 C   0  0  0  0  0  0  0  0  0  0  0  0
   11.7779   10.7722   22.0401 C   0  0  0  0  0  0  0  0  0  0  0  0
   11.9267    9.6642   21.5243 O   0  0  0  0  0  0  0  0  0  0  0  0
   10.7257   10.9135   23.0744 C   0  0  0  0  0  0  0  0  0  0  0  0
    9.9886    9.7712   23.3873 C   0  0  0  0  0  0  0  0  0  0  0  0
    8.9059    9.8648   24.2466 C   0  0  0  0  0  0  0  0  0  0  0  0
    8.5511   11.0810   24.8230 C   0  0  0  0  0  0  0  0  0  0  0  0
    7.4263   11.0128   25.5852 O   0  0  0  0  0  0  0  0  0  0  0  0
    6.8933   12.2151   26.1159 C   0  0  0  0  0  0  0  0  0  0  0  0
    5.4788   11.9644   26.6218 C   0  0  0  0  0  0  0  0  0  0  0  0
    5.3108   10.6184   27.3189 C   0  0  0  0  0  0  0  0  0  0  0  0
    3.9566   10.4483   27.7380 O   0  0  0  0  0  0  0  0  0  0  0  0
    3.7134   10.9608   29.0392 C   0  0  0  0  0  0  0  0  0  0  0  0
    9.3251   12.2096   24.5696 C   0  0  0  0  0  0  0  0  0  0  0  0
   10.4074   12.1305   23.6841 C   0  0  0  0  0  0  0  0  0  0  0  0
  1  2  1  0
  2  3  1  0
  3  4  2  0
  3  5  1  0
  5  6  2  0
  6  7  1  0
  7  8  2  0
  8  9  1  0
  9 10  1  0
 10 11  1  0
 11 12  1  0
 12 13  1  0
 13 14  1  0
  8 15  1  0
 15 16  2  0
 16  5  1  0
M  END
>  <distance_score>  (388) 
0.347776

>  <ref_pdb>  (388) 
A1775a

>  <ref_mols>  (388) 
A1775a

>  <alias>  (388) 
None

>  <original SMILES>  (388) 
CCC(=O)c1ccc(OCCCOC)cc1

>  <inchikey>  (388) 
VHBPFCUOFQAYGZ-UHFFFAOYSA-N

>  <exports>  (388) 
['/opt/xchem-fragalysis-2/maxwin/2A_HIPPO/hippo/A71EV2A_10_recipes/Recipe_1LPVPY0_poses.sdf']

>  <original ID>  (388) 
VHBPFCUOFQAYGZ-UHFFFAOYSA-N

>  <energy_score>  (388) 
-15.836131

>  <tags>  (388) 
[]

>  <HIPPO ID>  (388) 
146776

>  <name>  (388) 
VHBPFCUOFQAYGZ-UHFFFAOYSA-N

$$$$
UCDRZDXERYGANW-UHFFFAOYSA-N
     RDKit          3D

 16 16  0  0  0  0  0  0  0  0999 V2000
    6.5195   11.3044   30.2387 C   0  0  0  0  0  0  0  0  0  0  0  0
    6.5177   11.9499   28.9709 O   0  0  0  0  0  0  0  0  0  0  0  0
    5.7446   11.2245   28.0157 C   0  0  0  0  0  0  0  0  0  0  0  0
    5.6321   12.0451   26.7381 C   0  0  0  0  0  0  0  0  0  0  0  0
    6.9785   12.3305   26.0814 C   0  0  0  0  0  0  0  0  0  0  0  0
    7.5743   11.1107   25.6599 O   0  0  0  0  0  0  0  0  0  0  0  0
    8.6808   11.2133   24.8532 C   0  0  0  0  0  0  0  0  0  0  0  0
    9.4538   12.3498   24.6490 C   0  0  0  0  0  0  0  0  0  0  0  0
   10.5168   12.3040   23.7407 C   0  0  0  0  0  0  0  0  0  0  0  0
   10.8206   11.1118   23.0703 C   0  0  0  0  0  0  0  0  0  0  0  0
   11.8572   10.9865   22.0330 C   0  0  0  0  0  0  0  0  0  0  0  0
   12.5983   12.2216   21.6407 C   0  0  0  0  0  0  0  0  0  0  0  0
   12.0644    9.9012   21.4918 O   0  0  0  0  0  0  0  0  0  0  0  0
   10.0919    9.9686   23.3203 C   0  0  0  0  0  0  0  0  0  0  0  0
    9.0100   10.0356   24.1690 C   0  0  0  0  0  0  0  0  0  0  0  0
    8.2830    8.8720   24.3548 N   0  0  0  0  0  0  0  0  0  0  0  0
  1  2  1  0
  2  3  1  0
  3  4  1  0
  4  5  1  0
  5  6  1  0
  6  7  1  0
  7  8  2  0
  8  9  1  0
  9 10  2  0
 10 11  1  0
 11 12  1  0
 11 13  2  0
 10 14  1  0
 14 15  2  0
 15 16  1  0
 15  7  1  0
M  END
>  <distance_score>  (389) 
0.827416

>  <ref_pdb>  (389) 
A1775a

>  <ref_mols>  (389) 
A1775a

>  <alias>  (389) 
None

>  <original SMILES>  (389) 
COCCCOc1ccc(C(C)=O)cc1N

>  <inchikey>  (389) 
UCDRZDXERYGANW-UHFFFAOYSA-N

>  <exports>  (389) 
['/opt/xchem-fragalysis-2/maxwin/2A_HIPPO/hippo/A71EV2A_10_recipes/Recipe_1LPVPY0_poses.sdf']

>  <original ID>  (389) 
UCDRZDXERYGANW-UHFFFAOYSA-N

>  <energy_score>  (389) 
-35.966643

>  <tags>  (389) 
[]

>  <HIPPO ID>  (389) 
146923

>  <name>  (389) 
UCDRZDXERYGANW-UHFFFAOYSA-N

$$$$
HNUJXPLHEVKDLK-UHFFFAOYSA-N
     RDKit          3D

 16 16  0  0  0  0  0  0  0  0999 V2000
    3.8283   13.8355   24.3379 C   0  0  0  0  0  0  0  0  0  0  0  0
    4.5584   12.7714   24.9244 O   0  0  0  0  0  0  0  0  0  0  0  0
    4.6027   12.8485   26.3383 C   0  0  0  0  0  0  0  0  0  0  0  0
    5.6481   11.8466   26.7883 C   0  0  0  0  0  0  0  0  0  0  0  0
    7.0053   12.1959   26.1827 C   0  0  0  0  0  0  0  0  0  0  0  0
    7.6687   10.9834   25.8606 O   0  0  0  0  0  0  0  0  0  0  0  0
    8.6829   11.0754   24.9539 C   0  0  0  0  0  0  0  0  0  0  0  0
    9.4536   12.2105   24.7295 C   0  0  0  0  0  0  0  0  0  0  0  0
   10.4807   12.1655   23.7893 C   0  0  0  0  0  0  0  0  0  0  0  0
   10.7481   10.9779   23.0945 C   0  0  0  0  0  0  0  0  0  0  0  0
   11.7910   10.8946   22.0557 C   0  0  0  0  0  0  0  0  0  0  0  0
   12.5196   12.1562   21.6792 C   0  0  0  0  0  0  0  0  0  0  0  0
   12.0163    9.8166   21.5085 O   0  0  0  0  0  0  0  0  0  0  0  0
    9.9997    9.8344   23.3399 C   0  0  0  0  0  0  0  0  0  0  0  0
    8.9711    9.9057   24.2526 C   0  0  0  0  0  0  0  0  0  0  0  0
    8.2155    8.8231   24.4333 F   0  0  0  0  0  0  0  0  0  0  0  0
  1  2  1  0
  2  3  1  0
  3  4  1  0
  4  5  1  0
  5  6  1  0
  6  7  1  0
  7  8  2  0
  8  9  1  0
  9 10  2  0
 10 11  1  0
 11 12  1  0
 11 13  2  0
 10 14  1  0
 14 15  2  0
 15 16  1  0
 15  7  1  0
M  END
>  <distance_score>  (390) 
0.456315

>  <ref_pdb>  (390) 
A1775a

>  <ref_mols>  (390) 
A1775a

>  <alias>  (390) 
None

>  <original SMILES>  (390) 
COCCCOc1ccc(C(C)=O)cc1F

>  <inchikey>  (390) 
HNUJXPLHEVKDLK-UHFFFAOYSA-N

>  <exports>  (390) 
['/opt/xchem-fragalysis-2/maxwin/2A_HIPPO/hippo/A71EV2A_10_recipes/Recipe_1LPVPY0_poses.sdf']

>  <original ID>  (390) 
HNUJXPLHEVKDLK-UHFFFAOYSA-N

>  <energy_score>  (390) 
-22.092593

>  <tags>  (390) 
[]

>  <HIPPO ID>  (390) 
146938

>  <name>  (390) 
HNUJXPLHEVKDLK-UHFFFAOYSA-N

$$$$
HJCABBKZMWNQHA-UHFFFAOYSA-N
     RDKit          3D

 16 16  0  0  0  0  0  0  0  0999 V2000
    4.0668   10.4612   28.2566 C   0  0  0  0  0  0  0  0  0  0  0  0
    5.3277   10.5811   27.4208 C   0  0  0  0  0  0  0  0  0  0  0  0
    5.4433   11.9506   26.7551 C   0  0  0  0  0  0  0  0  0  0  0  0
    6.8227   12.2071   26.1541 C   0  0  0  0  0  0  0  0  0  0  0  0
    7.3233   11.0126   25.5724 O   0  0  0  0  0  0  0  0  0  0  0  0
    8.4767   11.0832   24.8535 C   0  0  0  0  0  0  0  0  0  0  0  0
    8.8438    9.8809   24.2593 C   0  0  0  0  0  0  0  0  0  0  0  0
    9.9439    9.8077   23.4201 C   0  0  0  0  0  0  0  0  0  0  0  0
   10.6971   10.9538   23.1508 C   0  0  0  0  0  0  0  0  0  0  0  0
   11.7462   10.8142   22.1097 C   0  0  0  0  0  0  0  0  0  0  0  0
   11.8997    9.6973   21.6092 O   0  0  0  0  0  0  0  0  0  0  0  0
   12.5245   12.0418   21.6774 C   0  0  0  0  0  0  0  0  0  0  0  0
   13.7371   11.5898   20.4489 Cl  0  0  0  0  0  0  0  0  0  0  0  0
   10.3719   12.1472   23.8059 C   0  0  0  0  0  0  0  0  0  0  0  0
   11.1183   13.2778   23.6295 O   0  0  0  0  0  0  0  0  0  0  0  0
    9.2673   12.2110   24.6611 C   0  0  0  0  0  0  0  0  0  0  0  0
  1  2  1  0
  2  3  1  0
  3  4  1  0
  4  5  1  0
  5  6  1  0
  6  7  2  0
  7  8  1  0
  8  9  2  0
  9 10  1  0
 10 11  2  0
 10 12  1  0
 12 13  1  0
  9 14  1  0
 14 15  1  0
 14 16  2  0
 16  6  1  0
M  END
>  <distance_score>  (391) 
0.390795

>  <ref_pdb>  (391) 
A1775a

>  <ref_mols>  (391) 
A1775a

>  <alias>  (391) 
None

>  <original SMILES>  (391) 
CCCCOc1ccc(C(=O)CCl)c(O)c1

>  <inchikey>  (391) 
HJCABBKZMWNQHA-UHFFFAOYSA-N

>  <exports>  (391) 
['/opt/xchem-fragalysis-2/maxwin/2A_HIPPO/hippo/A71EV2A_10_recipes/Recipe_1LPVPY0_poses.sdf']

>  <original ID>  (391) 
HJCABBKZMWNQHA-UHFFFAOYSA-N

>  <energy_score>  (391) 
-20.001129

>  <tags>  (391) 
[]

>  <HIPPO ID>  (391) 
147665

>  <name>  (391) 
HJCABBKZMWNQHA-UHFFFAOYSA-N

$$$$
JDMSKNIUSWKSGI-UHFFFAOYSA-N
     RDKit          3D

 16 16  0  0  0  0  0  0  0  0999 V2000
    5.1369    9.7663   26.9793 C   0  0  0  0  0  0  0  0  0  0  0  0
    5.3171   11.1802   27.4851 C   0  0  0  0  0  0  0  0  0  0  0  0
    5.4696   12.1924   26.3602 C   0  0  0  0  0  0  0  0  0  0  0  0
    6.9098   12.3840   25.8890 C   0  0  0  0  0  0  0  0  0  0  0  0
    7.5851   11.1610   25.6390 O   0  0  0  0  0  0  0  0  0  0  0  0
    8.6876   11.1954   24.8280 C   0  0  0  0  0  0  0  0  0  0  0  0
    8.9428    9.9584   24.2279 C   0  0  0  0  0  0  0  0  0  0  0  0
    9.9908    9.7915   23.3275 C   0  0  0  0  0  0  0  0  0  0  0  0
   10.8000   10.8780   22.9991 C   0  0  0  0  0  0  0  0  0  0  0  0
   11.8393   10.7137   21.9588 C   0  0  0  0  0  0  0  0  0  0  0  0
   11.9641    9.6013   21.4517 O   0  0  0  0  0  0  0  0  0  0  0  0
   12.6653   11.9285   21.5265 C   0  0  0  0  0  0  0  0  0  0  0  0
   13.7439   11.5737   20.5052 C   0  0  0  0  0  0  0  0  0  0  0  0
   10.5946   12.0995   23.6257 C   0  0  0  0  0  0  0  0  0  0  0  0
    9.5629   12.2538   24.5523 C   0  0  0  0  0  0  0  0  0  0  0  0
    9.5531   13.7934   25.3152 Cl  0  0  0  0  0  0  0  0  0  0  0  0
  1  2  1  0
  2  3  1  0
  3  4  1  0
  4  5  1  0
  5  6  1  0
  6  7  2  0
  7  8  1  0
  8  9  2  0
  9 10  1  0
 10 11  2  0
 10 12  1  0
 12 13  1  0
  9 14  1  0
 14 15  2  0
 15 16  1  0
 15  6  1  0
M  END
>  <distance_score>  (392) 
0.349948

>  <ref_pdb>  (392) 
A1775a

>  <ref_mols>  (392) 
A1775a

>  <alias>  (392) 
None

>  <original SMILES>  (392) 
CCCCOc1ccc(C(=O)CC)cc1Cl

>  <inchikey>  (392) 
JDMSKNIUSWKSGI-UHFFFAOYSA-N

>  <exports>  (392) 
['/opt/xchem-fragalysis-2/maxwin/2A_HIPPO/hippo/A71EV2A_10_recipes/Recipe_1LPVPY0_poses.sdf']

>  <original ID>  (392) 
JDMSKNIUSWKSGI-UHFFFAOYSA-N

>  <energy_score>  (392) 
-2.872472

>  <tags>  (392) 
[]

>  <HIPPO ID>  (392) 
147701

>  <name>  (392) 
JDMSKNIUSWKSGI-UHFFFAOYSA-N

$$$$
AUTCOUFYCRCTON-UHFFFAOYSA-N
     RDKit          3D

 16 16  0  0  0  0  0  0  0  0999 V2000
   12.6354   15.4760   25.1210 C   0  0  0  0  0  0  0  0  0  0  0  0
   11.7543   15.4555   26.3618 C   0  0  0  0  0  0  0  0  0  0  0  0
   10.3077   15.0605   26.1239 C   0  0  0  0  0  0  0  0  0  0  0  0
   10.2162   14.0265   25.0420 C   0  0  0  0  0  0  0  0  0  0  0  0
    8.9933   13.2903   25.0507 O   0  0  0  0  0  0  0  0  0  0  0  0
    9.2011   12.0938   24.3947 C   0  0  0  0  0  0  0  0  0  0  0  0
   10.1612   11.9761   23.3845 C   0  0  0  0  0  0  0  0  0  0  0  0
   10.5786   10.7367   22.9329 C   0  0  0  0  0  0  0  0  0  0  0  0
   11.7090   10.6381   21.9842 C   0  0  0  0  0  0  0  0  0  0  0  0
   11.9323    9.5288   21.5073 O   0  0  0  0  0  0  0  0  0  0  0  0
   12.4926   11.9099   21.6468 C   0  0  0  0  0  0  0  0  0  0  0  0
   13.7721   11.5529   20.4715 Cl  0  0  0  0  0  0  0  0  0  0  0  0
    9.9084    9.5988   23.3696 C   0  0  0  0  0  0  0  0  0  0  0  0
    8.8390    9.7277   24.2572 C   0  0  0  0  0  0  0  0  0  0  0  0
    8.4961   10.9684   24.7886 C   0  0  0  0  0  0  0  0  0  0  0  0
    7.4890   11.0846   25.7013 O   0  0  0  0  0  0  0  0  0  0  0  0
  1  2  1  0
  2  3  1  0
  3  4  1  0
  4  5  1  0
  5  6  1  0
  6  7  2  0
  7  8  1  0
  8  9  1  0
  9 10  2  0
  9 11  1  0
 11 12  1  0
  8 13  2  0
 13 14  1  0
 14 15  2  0
 15 16  1  0
 15  6  1  0
M  END
>  <distance_score>  (393) 
0.395256

>  <ref_pdb>  (393) 
A1775a

>  <ref_mols>  (393) 
A1775a

>  <alias>  (393) 
None

>  <original SMILES>  (393) 
CCCCOc1cc(C(=O)CCl)ccc1O

>  <inchikey>  (393) 
AUTCOUFYCRCTON-UHFFFAOYSA-N

>  <exports>  (393) 
['/opt/xchem-fragalysis-2/maxwin/2A_HIPPO/hippo/A71EV2A_10_recipes/Recipe_1LPVPY0_poses.sdf']

>  <original ID>  (393) 
AUTCOUFYCRCTON-UHFFFAOYSA-N

>  <energy_score>  (393) 
-2.138291

>  <tags>  (393) 
[]

>  <HIPPO ID>  (393) 
147748

>  <name>  (393) 
AUTCOUFYCRCTON-UHFFFAOYSA-N

$$$$
SPYKRVKGBXXRNQ-UHFFFAOYSA-N
     RDKit          3D

 16 16  0  0  0  0  0  0  0  0999 V2000
    4.9836   10.2148   26.6511 C   0  0  0  0  0  0  0  0  0  0  0  0
    5.6729   10.7743   27.8600 C   0  0  0  0  0  0  0  0  0  0  0  0
    6.2067   12.1788   27.6189 C   0  0  0  0  0  0  0  0  0  0  0  0
    7.1188   12.3961   26.4095 C   0  0  0  0  0  0  0  0  0  0  0  0
    7.6599   11.1897   25.9074 O   0  0  0  0  0  0  0  0  0  0  0  0
    8.6301   11.2597   24.9510 C   0  0  0  0  0  0  0  0  0  0  0  0
    8.9119   10.0167   24.3790 C   0  0  0  0  0  0  0  0  0  0  0  0
    9.9360    9.8611   23.4554 C   0  0  0  0  0  0  0  0  0  0  0  0
   10.6806   10.9718   23.0661 C   0  0  0  0  0  0  0  0  0  0  0  0
   11.7396   10.7851   22.0486 C   0  0  0  0  0  0  0  0  0  0  0  0
   11.8905    9.6596   21.5770 O   0  0  0  0  0  0  0  0  0  0  0  0
   12.5402   12.0080   21.6347 C   0  0  0  0  0  0  0  0  0  0  0  0
   13.7753   11.5701   20.4410 Cl  0  0  0  0  0  0  0  0  0  0  0  0
   10.3887   12.2293   23.6007 C   0  0  0  0  0  0  0  0  0  0  0  0
    9.3669   12.3712   24.5374 C   0  0  0  0  0  0  0  0  0  0  0  0
    9.1267   13.6255   25.0244 O   0  0  0  0  0  0  0  0  0  0  0  0
  1  2  1  0
  2  3  1  0
  3  4  1  0
  4  5  1  0
  5  6  1  0
  6  7  2  0
  7  8  1  0
  8  9  2  0
  9 10  1  0
 10 11  2  0
 10 12  1  0
 12 13  1  0
  9 14  1  0
 14 15  2  0
 15 16  1  0
 15  6  1  0
M  END
>  <distance_score>  (394) 
0.54369

>  <ref_pdb>  (394) 
A1775a

>  <ref_mols>  (394) 
A1775a

>  <alias>  (394) 
None

>  <original SMILES>  (394) 
CCCCOc1ccc(C(=O)CCl)cc1O

>  <inchikey>  (394) 
SPYKRVKGBXXRNQ-UHFFFAOYSA-N

>  <exports>  (394) 
['/opt/xchem-fragalysis-2/maxwin/2A_HIPPO/hippo/A71EV2A_10_recipes/Recipe_1LPVPY0_poses.sdf']

>  <original ID>  (394) 
SPYKRVKGBXXRNQ-UHFFFAOYSA-N

>  <energy_score>  (394) 
-14.2578

>  <tags>  (394) 
[]

>  <HIPPO ID>  (394) 
147898

>  <name>  (394) 
SPYKRVKGBXXRNQ-UHFFFAOYSA-N

$$$$
QOKHMJFNZKKYGC-UHFFFAOYSA-N
     RDKit          3D

 16 16  0  0  0  0  0  0  0  0999 V2000
    4.2750   10.5766   28.4261 C   0  0  0  0  0  0  0  0  0  0  0  0
    5.6597   10.9660   27.9344 C   0  0  0  0  0  0  0  0  0  0  0  0
    5.5797   11.8507   26.6934 C   0  0  0  0  0  0  0  0  0  0  0  0
    6.9473   12.2821   26.1775 C   0  0  0  0  0  0  0  0  0  0  0  0
    7.7212   11.1379   25.8371 O   0  0  0  0  0  0  0  0  0  0  0  0
    8.7029   11.3559   24.9159 C   0  0  0  0  0  0  0  0  0  0  0  0
    9.4680   12.5248   24.8097 C   0  0  0  0  0  0  0  0  0  0  0  0
   10.5250   12.5982   23.8850 C   0  0  0  0  0  0  0  0  0  0  0  0
   10.7108   11.5461   22.9975 C   0  0  0  0  0  0  0  0  0  0  0  0
   11.8229   11.2897   22.0754 C   0  0  0  0  0  0  0  0  0  0  0  0
   12.6299   12.4471   21.6866 C   0  0  0  0  0  0  0  0  0  0  0  0
   12.0463   10.1595   21.6356 O   0  0  0  0  0  0  0  0  0  0  0  0
    9.8303   10.5128   22.9909 C   0  0  0  0  0  0  0  0  0  0  0  0
    9.0040   10.3073   24.0656 C   0  0  0  0  0  0  0  0  0  0  0  0
    8.6174    9.0211   24.3063 O   0  0  0  0  0  0  0  0  0  0  0  0
    9.6823    8.1627   23.8541 C   0  0  0  0  0  0  0  0  0  0  0  0
  1  2  1  0
  2  3  1  0
  3  4  1  0
  4  5  1  0
  5  6  1  0
  6  7  2  0
  7  8  1  0
  8  9  2  0
  9 10  1  0
 10 11  1  0
 10 12  2  0
  9 13  1  0
 13 14  2  0
 14 15  1  0
 15 16  1  0
 14  6  1  0
M  END
>  <distance_score>  (395) 
1.005144

>  <ref_pdb>  (395) 
A1775a

>  <ref_mols>  (395) 
A1775a

>  <alias>  (395) 
None

>  <original SMILES>  (395) 
CCCCOc1ccc(C(C)=O)cc1OC

>  <inchikey>  (395) 
QOKHMJFNZKKYGC-UHFFFAOYSA-N

>  <exports>  (395) 
['/opt/xchem-fragalysis-2/maxwin/2A_HIPPO/hippo/A71EV2A_10_recipes/Recipe_1LPVPY0_poses.sdf']

>  <original ID>  (395) 
QOKHMJFNZKKYGC-UHFFFAOYSA-N

>  <energy_score>  (395) 
0.697029

>  <tags>  (395) 
[]

>  <HIPPO ID>  (395) 
147928

>  <name>  (395) 
QOKHMJFNZKKYGC-UHFFFAOYSA-N

$$$$
YGHCAIWZUJONMX-UHFFFAOYSA-N
     RDKit          3D

 16 16  0  0  0  0  0  0  0  0999 V2000
    4.7847    8.1074   28.4734 C   0  0  0  0  0  0  0  0  0  0  0  0
    5.1420    8.8540   27.6040 C   0  0  0  0  0  0  0  0  0  0  0  0
    5.3473    9.6217   26.3721 C   0  0  0  0  0  0  0  0  0  0  0  0
    6.5844   10.4677   26.1259 C   0  0  0  0  0  0  0  0  0  0  0  0
    7.6036    9.9421   25.2276 O   0  0  0  0  0  0  0  0  0  0  0  0
    8.5813   10.8381   24.8251 C   0  0  0  0  0  0  0  0  0  0  0  0
    9.5084   10.4042   23.8526 C   0  0  0  0  0  0  0  0  0  0  0  0
   10.5093   11.2821   23.3712 C   0  0  0  0  0  0  0  0  0  0  0  0
   11.4932   10.8825   22.3085 C   0  0  0  0  0  0  0  0  0  0  0  0
   11.5118    9.7172   21.9205 O   0  0  0  0  0  0  0  0  0  0  0  0
   12.3919   12.0057   21.7693 C   0  0  0  0  0  0  0  0  0  0  0  0
   13.5735   11.4633   20.5700 Cl  0  0  0  0  0  0  0  0  0  0  0  0
   10.5791   12.5833   23.8813 C   0  0  0  0  0  0  0  0  0  0  0  0
    9.7000   13.0063   24.8560 C   0  0  0  0  0  0  0  0  0  0  0  0
    8.7253   12.1383   25.3264 C   0  0  0  0  0  0  0  0  0  0  0  0
    7.9352   12.6187   26.3278 O   0  0  0  0  0  0  0  0  0  0  0  0
  1  2  3  0
  2  3  1  0
  3  4  1  0
  4  5  1  0
  5  6  1  0
  6  7  2  0
  7  8  1  0
  8  9  1  0
  9 10  2  0
  9 11  1  0
 11 12  1  0
  8 13  2  0
 13 14  1  0
 14 15  2  0
 15 16  1  0
 15  6  1  0
M  END
>  <distance_score>  (396) 
1.157194

>  <ref_pdb>  (396) 
A1775a

>  <ref_mols>  (396) 
A1775a

>  <alias>  (396) 
None

>  <original SMILES>  (396) 
C#CCCOc1cc(C(=O)CCl)ccc1O

>  <inchikey>  (396) 
YGHCAIWZUJONMX-UHFFFAOYSA-N

>  <exports>  (396) 
['/opt/xchem-fragalysis-2/maxwin/2A_HIPPO/hippo/A71EV2A_10_recipes/Recipe_1LPVPY0_poses.sdf']

>  <original ID>  (396) 
YGHCAIWZUJONMX-UHFFFAOYSA-N

>  <energy_score>  (396) 
-104.143278

>  <tags>  (396) 
[]

>  <HIPPO ID>  (396) 
147931

>  <name>  (396) 
YGHCAIWZUJONMX-UHFFFAOYSA-N

$$$$
DLKDALOAAHCCIY-UHFFFAOYSA-N
     RDKit          3D

 16 16  0  0  0  0  0  0  0  0999 V2000
    4.6875   13.7678   28.4320 C   0  0  0  0  0  0  0  0  0  0  0  0
    5.1759   12.9036   27.7572 C   0  0  0  0  0  0  0  0  0  0  0  0
    5.7182   11.8049   26.9520 C   0  0  0  0  0  0  0  0  0  0  0  0
    6.9523   12.2193   26.1599 C   0  0  0  0  0  0  0  0  0  0  0  0
    7.5018   11.0347   25.6051 O   0  0  0  0  0  0  0  0  0  0  0  0
    8.6088   11.1222   24.8172 C   0  0  0  0  0  0  0  0  0  0  0  0
    9.3855   12.2548   24.5997 C   0  0  0  0  0  0  0  0  0  0  0  0
   10.4656   12.1969   23.7079 C   0  0  0  0  0  0  0  0  0  0  0  0
   10.7800   10.9940   23.0624 C   0  0  0  0  0  0  0  0  0  0  0  0
   11.8196   10.8479   22.0264 C   0  0  0  0  0  0  0  0  0  0  0  0
   11.9687    9.7342   21.5224 O   0  0  0  0  0  0  0  0  0  0  0  0
   12.5891   12.0763   21.6153 C   0  0  0  0  0  0  0  0  0  0  0  0
   13.8118   11.6213   20.4085 Cl  0  0  0  0  0  0  0  0  0  0  0  0
   10.0431    9.8513   23.3243 C   0  0  0  0  0  0  0  0  0  0  0  0
    8.9587    9.9406   24.1635 C   0  0  0  0  0  0  0  0  0  0  0  0
    8.1787    8.8390   24.2833 O   0  0  0  0  0  0  0  0  0  0  0  0
  1  2  3  0
  2  3  1  0
  3  4  1  0
  4  5  1  0
  5  6  1  0
  6  7  2  0
  7  8  1  0
  8  9  2  0
  9 10  1  0
 10 11  2  0
 10 12  1  0
 12 13  1  0
  9 14  1  0
 14 15  2  0
 15 16  1  0
 15  6  1  0
M  END
>  <distance_score>  (397) 
0.403269

>  <ref_pdb>  (397) 
A1775a

>  <ref_mols>  (397) 
A1775a

>  <alias>  (397) 
None

>  <original SMILES>  (397) 
C#CCCOc1ccc(C(=O)CCl)cc1O

>  <inchikey>  (397) 
DLKDALOAAHCCIY-UHFFFAOYSA-N

>  <exports>  (397) 
['/opt/xchem-fragalysis-2/maxwin/2A_HIPPO/hippo/A71EV2A_10_recipes/Recipe_1LPVPY0_poses.sdf']

>  <original ID>  (397) 
DLKDALOAAHCCIY-UHFFFAOYSA-N

>  <energy_score>  (397) 
-63.166969

>  <tags>  (397) 
[]

>  <HIPPO ID>  (397) 
147932

>  <name>  (397) 
DLKDALOAAHCCIY-UHFFFAOYSA-N

$$$$
ZQOYIXUFAUTJCJ-UHFFFAOYSA-N
     RDKit          3D

 16 16  0  0  0  0  0  0  0  0999 V2000
    4.7481    9.5443   27.2714 C   0  0  0  0  0  0  0  0  0  0  0  0
    5.0797   10.6759   27.0478 C   0  0  0  0  0  0  0  0  0  0  0  0
    5.5109   12.0535   26.7695 C   0  0  0  0  0  0  0  0  0  0  0  0
    6.5262   12.0875   25.6339 C   0  0  0  0  0  0  0  0  0  0  0  0
    7.7118   11.4079   26.0518 O   0  0  0  0  0  0  0  0  0  0  0  0
    8.6150   11.2926   25.0383 C   0  0  0  0  0  0  0  0  0  0  0  0
    9.4717   12.3422   24.7483 C   0  0  0  0  0  0  0  0  0  0  0  0
   10.4725   12.1624   23.7966 C   0  0  0  0  0  0  0  0  0  0  0  0
   10.6287   10.9287   23.1378 C   0  0  0  0  0  0  0  0  0  0  0  0
   11.6897   10.7658   22.0999 C   0  0  0  0  0  0  0  0  0  0  0  0
   11.8712    9.6662   21.5823 O   0  0  0  0  0  0  0  0  0  0  0  0
   12.4778   12.0066   21.6969 C   0  0  0  0  0  0  0  0  0  0  0  0
   13.7064   11.5908   20.4764 Cl  0  0  0  0  0  0  0  0  0  0  0  0
    9.7473    9.8825   23.4474 C   0  0  0  0  0  0  0  0  0  0  0  0
    9.8119    8.6643   22.8338 O   0  0  0  0  0  0  0  0  0  0  0  0
    8.7543   10.0655   24.4029 C   0  0  0  0  0  0  0  0  0  0  0  0
  1  2  3  0
  2  3  1  0
  3  4  1  0
  4  5  1  0
  5  6  1  0
  6  7  2  0
  7  8  1  0
  8  9  2  0
  9 10  1  0
 10 11  2  0
 10 12  1  0
 12 13  1  0
  9 14  1  0
 14 15  1  0
 14 16  2  0
 16  6  1  0
M  END
>  <distance_score>  (398) 
0.490465

>  <ref_pdb>  (398) 
A1775a

>  <ref_mols>  (398) 
A1775a

>  <alias>  (398) 
None

>  <original SMILES>  (398) 
C#CCCOc1ccc(C(=O)CCl)c(O)c1

>  <inchikey>  (398) 
ZQOYIXUFAUTJCJ-UHFFFAOYSA-N

>  <exports>  (398) 
['/opt/xchem-fragalysis-2/maxwin/2A_HIPPO/hippo/A71EV2A_10_recipes/Recipe_1LPVPY0_poses.sdf']

>  <original ID>  (398) 
ZQOYIXUFAUTJCJ-UHFFFAOYSA-N

>  <energy_score>  (398) 
-211.308152

>  <tags>  (398) 
[]

>  <HIPPO ID>  (398) 
147935

>  <name>  (398) 
ZQOYIXUFAUTJCJ-UHFFFAOYSA-N

$$$$
FLENGHQVXJQOAX-UHFFFAOYSA-N
     RDKit          3D

 16 16  0  0  0  0  0  0  0  0999 V2000
    4.8802   12.9636   25.0920 N   0  0  0  0  0  0  0  0  0  0  0  0
    4.8473   12.0122   26.1905 C   0  0  0  0  0  0  0  0  0  0  0  0
    5.9502   12.2972   27.1912 C   0  0  0  0  0  0  0  0  0  0  0  0
    7.3050   12.3608   26.5041 C   0  0  0  0  0  0  0  0  0  0  0  0
    7.6233   11.1038   25.9198 O   0  0  0  0  0  0  0  0  0  0  0  0
    8.6464   11.1101   25.0151 C   0  0  0  0  0  0  0  0  0  0  0  0
    9.5134   12.1682   24.7680 C   0  0  0  0  0  0  0  0  0  0  0  0
   10.5253   12.0332   23.8187 C   0  0  0  0  0  0  0  0  0  0  0  0
   10.6835   10.8367   23.1038 C   0  0  0  0  0  0  0  0  0  0  0  0
   11.7370   10.7262   22.0572 C   0  0  0  0  0  0  0  0  0  0  0  0
   11.9406    9.6429   21.5145 O   0  0  0  0  0  0  0  0  0  0  0  0
   12.4964   11.9904   21.6756 C   0  0  0  0  0  0  0  0  0  0  0  0
   13.7340   11.6074   20.4517 Cl  0  0  0  0  0  0  0  0  0  0  0  0
    9.8036    9.7798   23.3600 C   0  0  0  0  0  0  0  0  0  0  0  0
    9.8521    8.6019   22.6726 O   0  0  0  0  0  0  0  0  0  0  0  0
    8.8068    9.9192   24.3163 C   0  0  0  0  0  0  0  0  0  0  0  0
  1  2  1  0
  2  3  1  0
  3  4  1  0
  4  5  1  0
  5  6  1  0
  6  7  2  0
  7  8  1  0
  8  9  2  0
  9 10  1  0
 10 11  2  0
 10 12  1  0
 12 13  1  0
  9 14  1  0
 14 15  1  0
 14 16  2  0
 16  6  1  0
M  END
>  <distance_score>  (399) 
0.440148

>  <ref_pdb>  (399) 
A1775a

>  <ref_mols>  (399) 
A1775a

>  <alias>  (399) 
None

>  <original SMILES>  (399) 
NCCCOc1ccc(C(=O)CCl)c(O)c1

>  <inchikey>  (399) 
FLENGHQVXJQOAX-UHFFFAOYSA-N

>  <exports>  (399) 
['/opt/xchem-fragalysis-2/maxwin/2A_HIPPO/hippo/A71EV2A_10_recipes/Recipe_1LPVPY0_poses.sdf']

>  <original ID>  (399) 
FLENGHQVXJQOAX-UHFFFAOYSA-N

>  <energy_score>  (399) 
-21.728664

>  <tags>  (399) 
[]

>  <HIPPO ID>  (399) 
148184

>  <name>  (399) 
FLENGHQVXJQOAX-UHFFFAOYSA-N

$$$$
QBKIBAMYOYFBJH-UHFFFAOYSA-N
     RDKit          3D

 16 16  0  0  0  0  0  0  0  0999 V2000
    9.6616    8.1843   23.8623 C   0  0  0  0  0  0  0  0  0  0  0  0
    8.6079    9.0477   24.3332 O   0  0  0  0  0  0  0  0  0  0  0  0
    9.0006   10.3320   24.0947 C   0  0  0  0  0  0  0  0  0  0  0  0
    9.8125   10.5395   23.0093 C   0  0  0  0  0  0  0  0  0  0  0  0
   10.7052   11.5645   23.0115 C   0  0  0  0  0  0  0  0  0  0  0  0
   11.8116   11.2955   22.0848 C   0  0  0  0  0  0  0  0  0  0  0  0
   12.6275   12.4451   21.6894 C   0  0  0  0  0  0  0  0  0  0  0  0
   12.0209   10.1622   21.6457 O   0  0  0  0  0  0  0  0  0  0  0  0
   10.5407   12.6171   23.9034 C   0  0  0  0  0  0  0  0  0  0  0  0
    9.4987   12.5472   24.8426 C   0  0  0  0  0  0  0  0  0  0  0  0
    8.7323   11.3806   24.9535 C   0  0  0  0  0  0  0  0  0  0  0  0
    7.8060   11.2060   25.9407 O   0  0  0  0  0  0  0  0  0  0  0  0
    6.7201   12.1241   25.8086 C   0  0  0  0  0  0  0  0  0  0  0  0
    5.4930   11.6034   26.5495 C   0  0  0  0  0  0  0  0  0  0  0  0
    5.4069   12.0081   28.0209 C   0  0  0  0  0  0  0  0  0  0  0  0
    6.4475   11.4345   28.8629 N   0  0  0  0  0  0  0  0  0  0  0  0
  1  2  1  0
  2  3  1  0
  3  4  2  0
  4  5  1  0
  5  6  1  0
  6  7  1  0
  6  8  2  0
  5  9  2  0
  9 10  1  0
 10 11  2  0
 11 12  1  0
 12 13  1  0
 13 14  1  0
 14 15  1  0
 15 16  1  0
 11  3  1  0
M  END
>  <distance_score>  (400) 
1.030005

>  <ref_pdb>  (400) 
A1775a

>  <ref_mols>  (400) 
A1775a

>  <alias>  (400) 
None

>  <original SMILES>  (400) 
COc1cc(C(C)=O)ccc1OCCCN

>  <inchikey>  (400) 
QBKIBAMYOYFBJH-UHFFFAOYSA-N

>  <exports>  (400) 
['/opt/xchem-fragalysis-2/maxwin/2A_HIPPO/hippo/A71EV2A_10_recipes/Recipe_1LPVPY0_poses.sdf']

>  <original ID>  (400) 
QBKIBAMYOYFBJH-UHFFFAOYSA-N

>  <energy_score>  (400) 
18.378278

>  <tags>  (400) 
[]

>  <HIPPO ID>  (400) 
148219

>  <name>  (400) 
QBKIBAMYOYFBJH-UHFFFAOYSA-N

$$$$
GRHYVZGXRSPKJK-UHFFFAOYSA-N
     RDKit          3D

 16 16  0  0  0  0  0  0  0  0999 V2000
   13.7559   11.5661   20.4912 C   0  0  0  0  0  0  0  0  0  0  0  0
   12.6790   11.9280   21.5098 C   0  0  0  0  0  0  0  0  0  0  0  0
   11.8436   10.7221   21.9488 C   0  0  0  0  0  0  0  0  0  0  0  0
   11.9556    9.6067   21.4466 O   0  0  0  0  0  0  0  0  0  0  0  0
   10.8153   10.9018   22.9969 C   0  0  0  0  0  0  0  0  0  0  0  0
    9.9916    9.8310   23.3362 C   0  0  0  0  0  0  0  0  0  0  0  0
    8.9834   10.0094   24.2792 C   0  0  0  0  0  0  0  0  0  0  0  0
    8.7927   11.2370   24.9269 C   0  0  0  0  0  0  0  0  0  0  0  0
    7.7559   11.1762   25.8228 O   0  0  0  0  0  0  0  0  0  0  0  0
    7.3395   12.3832   26.4397 C   0  0  0  0  0  0  0  0  0  0  0  0
    5.9979   12.2363   27.1414 C   0  0  0  0  0  0  0  0  0  0  0  0
    4.8755   12.0324   26.1424 C   0  0  0  0  0  0  0  0  0  0  0  0
    4.8561   13.0625   25.1171 N   0  0  0  0  0  0  0  0  0  0  0  0
    9.6573   12.2940   24.6007 C   0  0  0  0  0  0  0  0  0  0  0  0
    9.6972   13.8619   25.3155 Cl  0  0  0  0  0  0  0  0  0  0  0  0
   10.6441   12.1255   23.6285 C   0  0  0  0  0  0  0  0  0  0  0  0
  1  2  1  0
  2  3  1  0
  3  4  2  0
  3  5  1  0
  5  6  2  0
  6  7  1  0
  7  8  2  0
  8  9  1  0
  9 10  1  0
 10 11  1  0
 11 12  1  0
 12 13  1  0
  8 14  1  0
 14 15  1  0
 14 16  2  0
 16  5  1  0
M  END
>  <distance_score>  (401) 
0.44011

>  <ref_pdb>  (401) 
A1775a

>  <ref_mols>  (401) 
A1775a

>  <alias>  (401) 
None

>  <original SMILES>  (401) 
CCC(=O)c1ccc(OCCCN)c(Cl)c1

>  <inchikey>  (401) 
GRHYVZGXRSPKJK-UHFFFAOYSA-N

>  <exports>  (401) 
['/opt/xchem-fragalysis-2/maxwin/2A_HIPPO/hippo/A71EV2A_10_recipes/Recipe_1LPVPY0_poses.sdf']

>  <original ID>  (401) 
GRHYVZGXRSPKJK-UHFFFAOYSA-N

>  <energy_score>  (401) 
-15.71375

>  <tags>  (401) 
[]

>  <HIPPO ID>  (401) 
148231

>  <name>  (401) 
GRHYVZGXRSPKJK-UHFFFAOYSA-N

$$$$
NBQPNIAKDXXXTP-UHFFFAOYSA-N
     RDKit          3D

 16 16  0  0  0  0  0  0  0  0999 V2000
    3.8294   12.7735   28.2736 N   0  0  0  0  0  0  0  0  0  0  0  0
    5.0415   13.1111   27.5452 C   0  0  0  0  0  0  0  0  0  0  0  0
    5.6674   11.8888   26.8889 C   0  0  0  0  0  0  0  0  0  0  0  0
    6.9273   12.2569   26.1116 C   0  0  0  0  0  0  0  0  0  0  0  0
    7.4980   11.0503   25.6296 O   0  0  0  0  0  0  0  0  0  0  0  0
    8.6020   11.1292   24.8317 C   0  0  0  0  0  0  0  0  0  0  0  0
    9.3827   12.2597   24.6106 C   0  0  0  0  0  0  0  0  0  0  0  0
   10.4608   12.2001   23.7161 C   0  0  0  0  0  0  0  0  0  0  0  0
   10.7719   10.9969   23.0707 C   0  0  0  0  0  0  0  0  0  0  0  0
   11.8112   10.8488   22.0341 C   0  0  0  0  0  0  0  0  0  0  0  0
   11.9595    9.7345   21.5309 O   0  0  0  0  0  0  0  0  0  0  0  0
   12.5821   12.0765   21.6218 C   0  0  0  0  0  0  0  0  0  0  0  0
   13.8042   11.6201   20.4140 Cl  0  0  0  0  0  0  0  0  0  0  0  0
   10.0322    9.8565   23.3351 C   0  0  0  0  0  0  0  0  0  0  0  0
    8.9490    9.9472   24.1775 C   0  0  0  0  0  0  0  0  0  0  0  0
    8.1691    8.8457   24.2966 O   0  0  0  0  0  0  0  0  0  0  0  0
  1  2  1  0
  2  3  1  0
  3  4  1  0
  4  5  1  0
  5  6  1  0
  6  7  2  0
  7  8  1  0
  8  9  2  0
  9 10  1  0
 10 11  2  0
 10 12  1  0
 12 13  1  0
  9 14  1  0
 14 15  2  0
 15 16  1  0
 15  6  1  0
M  END
>  <distance_score>  (402) 
0.396645

>  <ref_pdb>  (402) 
A1775a

>  <ref_mols>  (402) 
A1775a

>  <alias>  (402) 
None

>  <original SMILES>  (402) 
NCCCOc1ccc(C(=O)CCl)cc1O

>  <inchikey>  (402) 
NBQPNIAKDXXXTP-UHFFFAOYSA-N

>  <exports>  (402) 
['/opt/xchem-fragalysis-2/maxwin/2A_HIPPO/hippo/A71EV2A_10_recipes/Recipe_1LPVPY0_poses.sdf']

>  <original ID>  (402) 
NBQPNIAKDXXXTP-UHFFFAOYSA-N

>  <energy_score>  (402) 
-19.947384

>  <tags>  (402) 
[]

>  <HIPPO ID>  (402) 
148248

>  <name>  (402) 
NBQPNIAKDXXXTP-UHFFFAOYSA-N

$$$$
GUVVSYAISZTTOF-UHFFFAOYSA-N
     RDKit          3D

 16 16  0  0  0  0  0  0  0  0999 V2000
   13.7564   11.5575   20.4874 C   0  0  0  0  0  0  0  0  0  0  0  0
   12.6859   11.9353   21.5054 C   0  0  0  0  0  0  0  0  0  0  0  0
   11.8383   10.7447   21.9619 C   0  0  0  0  0  0  0  0  0  0  0  0
   11.9309    9.6226   21.4702 O   0  0  0  0  0  0  0  0  0  0  0  0
   10.8193   10.9578   23.0155 C   0  0  0  0  0  0  0  0  0  0  0  0
    9.9712    9.9010   23.3702 C   0  0  0  0  0  0  0  0  0  0  0  0
    8.9671   10.1004   24.3143 C   0  0  0  0  0  0  0  0  0  0  0  0
    8.8222   11.3469   24.9154 C   0  0  0  0  0  0  0  0  0  0  0  0
    7.8577   11.4904   25.8754 O   0  0  0  0  0  0  0  0  0  0  0  0
    6.7005   12.1352   25.3348 C   0  0  0  0  0  0  0  0  0  0  0  0
    5.7123   12.4177   26.4493 C   0  0  0  0  0  0  0  0  0  0  0  0
    5.0172   11.1813   26.7864 C   0  0  0  0  0  0  0  0  0  0  0  0
    4.4664   10.1899   27.0213 N   0  0  0  0  0  0  0  0  0  0  0  0
    9.7046   12.3802   24.5967 C   0  0  0  0  0  0  0  0  0  0  0  0
    9.6583   13.9085   25.3721 Cl  0  0  0  0  0  0  0  0  0  0  0  0
   10.6851   12.1967   23.6347 C   0  0  0  0  0  0  0  0  0  0  0  0
  1  2  1  0
  2  3  1  0
  3  4  2  0
  3  5  1  0
  5  6  2  0
  6  7  1  0
  7  8  2  0
  8  9  1  0
  9 10  1  0
 10 11  1  0
 11 12  1  0
 12 13  3  0
  8 14  1  0
 14 15  1  0
 14 16  2  0
 16  5  1  0
M  END
>  <distance_score>  (403) 
0.495079

>  <ref_pdb>  (403) 
A1775a

>  <ref_mols>  (403) 
A1775a

>  <alias>  (403) 
None

>  <original SMILES>  (403) 
CCC(=O)c1ccc(OCCC#N)c(Cl)c1

>  <inchikey>  (403) 
GUVVSYAISZTTOF-UHFFFAOYSA-N

>  <exports>  (403) 
['/opt/xchem-fragalysis-2/maxwin/2A_HIPPO/hippo/A71EV2A_10_recipes/Recipe_1LPVPY0_poses.sdf']

>  <original ID>  (403) 
GUVVSYAISZTTOF-UHFFFAOYSA-N

>  <energy_score>  (403) 
-12.441848

>  <tags>  (403) 
[]

>  <HIPPO ID>  (403) 
148552

>  <name>  (403) 
GUVVSYAISZTTOF-UHFFFAOYSA-N

$$$$
XSGWQRWJZXRBGE-NSCUHMNNSA-N
     RDKit          3D

 16 16  0  0  0  0  0  0  0  0999 V2000
    9.6799    4.0387   22.2424 C   0  0  0  0  0  0  0  0  0  0  0  0
    9.7977    5.5063   22.3804 C   0  0  0  0  0  0  0  0  0  0  0  0
    9.2295    6.7621   21.8743 C   0  0  0  0  0  0  0  0  0  0  0  0
    9.4958    8.1818   22.3152 C   0  0  0  0  0  0  0  0  0  0  0  0
   10.4087    8.4855   23.3574 O   0  0  0  0  0  0  0  0  0  0  0  0
   10.1210    9.8021   23.7092 C   0  0  0  0  0  0  0  0  0  0  0  0
    9.0234   10.0046   24.5544 C   0  0  0  0  0  0  0  0  0  0  0  0
    8.6450   11.2733   24.9578 C   0  0  0  0  0  0  0  0  0  0  0  0
    7.5507   11.3769   25.7588 O   0  0  0  0  0  0  0  0  0  0  0  0
    9.3657   12.3756   24.5427 C   0  0  0  0  0  0  0  0  0  0  0  0
   10.4294   12.1988   23.6546 C   0  0  0  0  0  0  0  0  0  0  0  0
   10.7990   10.9160   23.2011 C   0  0  0  0  0  0  0  0  0  0  0  0
   11.7984   10.7770   22.1061 C   0  0  0  0  0  0  0  0  0  0  0  0
   11.9619    9.6825   21.5733 O   0  0  0  0  0  0  0  0  0  0  0  0
   12.5449   12.0242   21.6643 C   0  0  0  0  0  0  0  0  0  0  0  0
   13.7694   11.5994   20.4450 Cl  0  0  0  0  0  0  0  0  0  0  0  0
  1  2  1  0
  2  3  2  0
  3  4  1  0
  4  5  1  0
  5  6  1  0
  6  7  2  0
  7  8  1  0
  8  9  1  0
  8 10  2  0
 10 11  1  0
 11 12  2  0
 12 13  1  0
 13 14  2  0
 13 15  1  0
 15 16  1  0
 12  6  1  0
M  END
>  <distance_score>  (404) 
0.451216

>  <ref_pdb>  (404) 
A1775a

>  <ref_mols>  (404) 
A1775a

>  <alias>  (404) 
None

>  <original SMILES>  (404) 
C/C=C/COc1cc(O)ccc1C(=O)CCl

>  <inchikey>  (404) 
XSGWQRWJZXRBGE-NSCUHMNNSA-N

>  <exports>  (404) 
['/opt/xchem-fragalysis-2/maxwin/2A_HIPPO/hippo/A71EV2A_10_recipes/Recipe_1LPVPY0_poses.sdf']

>  <original ID>  (404) 
XSGWQRWJZXRBGE-NSCUHMNNSA-N

>  <energy_score>  (404) 
3.207676

>  <tags>  (404) 
[]

>  <HIPPO ID>  (404) 
148697

>  <name>  (404) 
XSGWQRWJZXRBGE-NSCUHMNNSA-N

$$$$
VGNBMMXGRVEUEV-NSCUHMNNSA-N
     RDKit          3D

 16 16  0  0  0  0  0  0  0  0999 V2000
    4.0990   10.7739   28.2809 C   0  0  0  0  0  0  0  0  0  0  0  0
    5.2939   10.9162   27.3962 C   0  0  0  0  0  0  0  0  0  0  0  0
    5.6719   12.0719   26.8265 C   0  0  0  0  0  0  0  0  0  0  0  0
    6.8758   12.2910   25.9541 C   0  0  0  0  0  0  0  0  0  0  0  0
    7.5371   11.0699   25.6653 O   0  0  0  0  0  0  0  0  0  0  0  0
    8.6234   11.1342   24.8382 C   0  0  0  0  0  0  0  0  0  0  0  0
    9.4126   12.2594   24.6125 C   0  0  0  0  0  0  0  0  0  0  0  0
   10.4826   12.1945   23.7114 C   0  0  0  0  0  0  0  0  0  0  0  0
   10.7792   10.9907   23.0624 C   0  0  0  0  0  0  0  0  0  0  0  0
   11.8171   10.8410   22.0254 C   0  0  0  0  0  0  0  0  0  0  0  0
   11.9627    9.7272   21.5210 O   0  0  0  0  0  0  0  0  0  0  0  0
   12.5887   12.0692   21.6142 C   0  0  0  0  0  0  0  0  0  0  0  0
   13.8115   11.6170   20.4075 Cl  0  0  0  0  0  0  0  0  0  0  0  0
   10.0313    9.8552   23.3280 C   0  0  0  0  0  0  0  0  0  0  0  0
    8.9553    9.9504   24.1806 C   0  0  0  0  0  0  0  0  0  0  0  0
    8.1688    8.8543   24.3043 O   0  0  0  0  0  0  0  0  0  0  0  0
  1  2  1  0
  2  3  2  0
  3  4  1  0
  4  5  1  0
  5  6  1  0
  6  7  2  0
  7  8  1  0
  8  9  2  0
  9 10  1  0
 10 11  2  0
 10 12  1  0
 12 13  1  0
  9 14  1  0
 14 15  2  0
 15 16  1  0
 15  6  1  0
M  END
>  <distance_score>  (405) 
0.388567

>  <ref_pdb>  (405) 
A1775a

>  <ref_mols>  (405) 
A1775a

>  <alias>  (405) 
None

>  <original SMILES>  (405) 
C/C=C/COc1ccc(C(=O)CCl)cc1O

>  <inchikey>  (405) 
VGNBMMXGRVEUEV-NSCUHMNNSA-N

>  <exports>  (405) 
['/opt/xchem-fragalysis-2/maxwin/2A_HIPPO/hippo/A71EV2A_10_recipes/Recipe_1LPVPY0_poses.sdf']

>  <original ID>  (405) 
VGNBMMXGRVEUEV-NSCUHMNNSA-N

>  <energy_score>  (405) 
-13.421503

>  <tags>  (405) 
[]

>  <HIPPO ID>  (405) 
148699

>  <name>  (405) 
VGNBMMXGRVEUEV-NSCUHMNNSA-N

$$$$
PGHHMPFNTAJPPV-NSCUHMNNSA-N
     RDKit          3D

 16 16  0  0  0  0  0  0  0  0999 V2000
   11.0648   15.4311   26.9112 C   0  0  0  0  0  0  0  0  0  0  0  0
   10.1560   14.8065   25.9413 C   0  0  0  0  0  0  0  0  0  0  0  0
   10.2467   14.9892   24.6177 C   0  0  0  0  0  0  0  0  0  0  0  0
    9.2726   14.4441   23.6274 C   0  0  0  0  0  0  0  0  0  0  0  0
    8.5662   13.3489   24.2476 O   0  0  0  0  0  0  0  0  0  0  0  0
    9.1762   12.1293   24.0970 C   0  0  0  0  0  0  0  0  0  0  0  0
   10.3853   11.9576   23.4426 C   0  0  0  0  0  0  0  0  0  0  0  0
   10.7834   10.7024   23.0179 C   0  0  0  0  0  0  0  0  0  0  0  0
   11.8415   10.6106   21.9905 C   0  0  0  0  0  0  0  0  0  0  0  0
   12.0067    9.5149   21.4636 O   0  0  0  0  0  0  0  0  0  0  0  0
   12.5844   11.8907   21.5982 C   0  0  0  0  0  0  0  0  0  0  0  0
   13.8386   11.5484   20.4038 Cl  0  0  0  0  0  0  0  0  0  0  0  0
   10.0734    9.5761   23.4263 C   0  0  0  0  0  0  0  0  0  0  0  0
    8.9414    9.7376   24.2218 C   0  0  0  0  0  0  0  0  0  0  0  0
    8.4913   11.0100   24.5466 C   0  0  0  0  0  0  0  0  0  0  0  0
    7.3348   11.1364   25.2602 O   0  0  0  0  0  0  0  0  0  0  0  0
  1  2  1  0
  2  3  2  0
  3  4  1  0
  4  5  1  0
  5  6  1  0
  6  7  2  0
  7  8  1  0
  8  9  1  0
  9 10  2  0
  9 11  1  0
 11 12  1  0
  8 13  2  0
 13 14  1  0
 14 15  2  0
 15 16  1  0
 15  6  1  0
M  END
>  <distance_score>  (406) 
0.44539

>  <ref_pdb>  (406) 
A1775a

>  <ref_mols>  (406) 
A1775a

>  <alias>  (406) 
None

>  <original SMILES>  (406) 
C/C=C/COc1cc(C(=O)CCl)ccc1O

>  <inchikey>  (406) 
PGHHMPFNTAJPPV-NSCUHMNNSA-N

>  <exports>  (406) 
['/opt/xchem-fragalysis-2/maxwin/2A_HIPPO/hippo/A71EV2A_10_recipes/Recipe_1LPVPY0_poses.sdf']

>  <original ID>  (406) 
PGHHMPFNTAJPPV-NSCUHMNNSA-N

>  <energy_score>  (406) 
-72.40608

>  <tags>  (406) 
[]

>  <HIPPO ID>  (406) 
148700

>  <name>  (406) 
PGHHMPFNTAJPPV-NSCUHMNNSA-N

$$$$
ABRFRXRWLNUUMJ-NSCUHMNNSA-N
     RDKit          3D

 16 16  0  0  0  0  0  0  0  0999 V2000
    4.0066   11.7916   28.7762 C   0  0  0  0  0  0  0  0  0  0  0  0
    5.3299   12.0959   28.1527 C   0  0  0  0  0  0  0  0  0  0  0  0
    5.5741   11.9761   26.8396 C   0  0  0  0  0  0  0  0  0  0  0  0
    6.8826   12.2640   26.1820 C   0  0  0  0  0  0  0  0  0  0  0  0
    7.3882   11.0243   25.7135 O   0  0  0  0  0  0  0  0  0  0  0  0
    8.4887   11.0632   24.9125 C   0  0  0  0  0  0  0  0  0  0  0  0
    9.3192   12.1521   24.6859 C   0  0  0  0  0  0  0  0  0  0  0  0
   10.3911   12.0332   23.7938 C   0  0  0  0  0  0  0  0  0  0  0  0
   10.6349   10.8272   23.1146 C   0  0  0  0  0  0  0  0  0  0  0  0
   11.7098   10.7318   22.0868 C   0  0  0  0  0  0  0  0  0  0  0  0
   11.9244    9.6519   21.5408 O   0  0  0  0  0  0  0  0  0  0  0  0
   12.4643   12.0005   21.7149 C   0  0  0  0  0  0  0  0  0  0  0  0
   13.7008   11.6186   20.4847 Cl  0  0  0  0  0  0  0  0  0  0  0  0
    9.7979    9.7379   23.3696 C   0  0  0  0  0  0  0  0  0  0  0  0
    9.9136    8.5415   22.7254 O   0  0  0  0  0  0  0  0  0  0  0  0
    8.7586    9.8571   24.2780 C   0  0  0  0  0  0  0  0  0  0  0  0
  1  2  1  0
  2  3  2  0
  3  4  1  0
  4  5  1  0
  5  6  1  0
  6  7  2  0
  7  8  1  0
  8  9  2  0
  9 10  1  0
 10 11  2  0
 10 12  1  0
 12 13  1  0
  9 14  1  0
 14 15  1  0
 14 16  2  0
 16  6  1  0
M  END
>  <distance_score>  (407) 
0.365621

>  <ref_pdb>  (407) 
A1775a

>  <ref_mols>  (407) 
A1775a

>  <alias>  (407) 
None

>  <original SMILES>  (407) 
C/C=C/COc1ccc(C(=O)CCl)c(O)c1

>  <inchikey>  (407) 
ABRFRXRWLNUUMJ-NSCUHMNNSA-N

>  <exports>  (407) 
['/opt/xchem-fragalysis-2/maxwin/2A_HIPPO/hippo/A71EV2A_10_recipes/Recipe_1LPVPY0_poses.sdf']

>  <original ID>  (407) 
ABRFRXRWLNUUMJ-NSCUHMNNSA-N

>  <energy_score>  (407) 
-13.090886

>  <tags>  (407) 
[]

>  <HIPPO ID>  (407) 
148705

>  <name>  (407) 
ABRFRXRWLNUUMJ-NSCUHMNNSA-N

$$$$
MJMAPHDLFLOXJD-UHFFFAOYSA-N
     RDKit          3D

 16 16  0  0  0  0  0  0  0  0999 V2000
    8.6405    6.7233   21.2135 N   0  0  0  0  0  0  0  0  0  0  0  0
    9.1853    7.5334   21.8245 C   0  0  0  0  0  0  0  0  0  0  0  0
    9.5112    8.6421   22.6191 C   0  0  0  0  0  0  0  0  0  0  0  0
   10.6011    8.3703   23.5723 C   0  0  0  0  0  0  0  0  0  0  0  0
   11.0398    9.5266   24.2793 O   0  0  0  0  0  0  0  0  0  0  0  0
   10.3214   10.6621   24.0564 C   0  0  0  0  0  0  0  0  0  0  0  0
    9.1650   10.8894   24.7969 C   0  0  0  0  0  0  0  0  0  0  0  0
    8.3959   12.0096   24.5622 C   0  0  0  0  0  0  0  0  0  0  0  0
    7.2250   12.1056   25.2470 O   0  0  0  0  0  0  0  0  0  0  0  0
    8.8065   12.9489   23.6306 C   0  0  0  0  0  0  0  0  0  0  0  0
    9.9824   12.7356   22.9012 C   0  0  0  0  0  0  0  0  0  0  0  0
   10.7228   11.5621   23.0792 C   0  0  0  0  0  0  0  0  0  0  0  0
   11.7778   11.1550   22.1120 C   0  0  0  0  0  0  0  0  0  0  0  0
   11.8811    9.9840   21.7506 O   0  0  0  0  0  0  0  0  0  0  0  0
   12.6455   12.2453   21.5903 C   0  0  0  0  0  0  0  0  0  0  0  0
   13.8263   11.5983   20.4321 Cl  0  0  0  0  0  0  0  0  0  0  0  0
  1  2  3  0
  2  3  1  0
  3  4  1  0
  4  5  1  0
  5  6  1  0
  6  7  2  0
  7  8  1  0
  8  9  1  0
  8 10  2  0
 10 11  1  0
 11 12  2  0
 12 13  1  0
 13 14  2  0
 13 15  1  0
 15 16  1  0
 12  6  1  0
M  END
>  <distance_score>  (408) 
1.138619

>  <ref_pdb>  (408) 
A1775a

>  <ref_mols>  (408) 
A1775a

>  <alias>  (408) 
None

>  <original SMILES>  (408) 
N#CCCOc1cc(O)ccc1C(=O)CCl

>  <inchikey>  (408) 
MJMAPHDLFLOXJD-UHFFFAOYSA-N

>  <exports>  (408) 
['/opt/xchem-fragalysis-2/maxwin/2A_HIPPO/hippo/A71EV2A_10_recipes/Recipe_1LPVPY0_poses.sdf']

>  <original ID>  (408) 
MJMAPHDLFLOXJD-UHFFFAOYSA-N

>  <energy_score>  (408) 
-2.975189

>  <tags>  (408) 
[]

>  <HIPPO ID>  (408) 
148726

>  <name>  (408) 
MJMAPHDLFLOXJD-UHFFFAOYSA-N

$$$$
DAIUOFUKXNJLLH-UHFFFAOYSA-N
     RDKit          3D

 16 16  0  0  0  0  0  0  0  0999 V2000
    3.9345   13.9324   26.9404 N   0  0  0  0  0  0  0  0  0  0  0  0
    4.6063   12.9962   26.8327 C   0  0  0  0  0  0  0  0  0  0  0  0
    5.4765   11.8316   26.7207 C   0  0  0  0  0  0  0  0  0  0  0  0
    6.7318   12.1858   25.9444 C   0  0  0  0  0  0  0  0  0  0  0  0
    7.4576   10.9811   25.7276 O   0  0  0  0  0  0  0  0  0  0  0  0
    8.5330   11.0660   24.8946 C   0  0  0  0  0  0  0  0  0  0  0  0
    8.8846    9.8678   24.2857 C   0  0  0  0  0  0  0  0  0  0  0  0
    9.9590    9.8057   23.4128 C   0  0  0  0  0  0  0  0  0  0  0  0
   10.6997   10.9569   23.1260 C   0  0  0  0  0  0  0  0  0  0  0  0
   11.7509   10.8152   22.0883 C   0  0  0  0  0  0  0  0  0  0  0  0
   11.9020    9.6973   21.5895 O   0  0  0  0  0  0  0  0  0  0  0  0
   12.5359   12.0401   21.6615 C   0  0  0  0  0  0  0  0  0  0  0  0
   13.7529   11.5862   20.4404 Cl  0  0  0  0  0  0  0  0  0  0  0  0
   10.3703   12.1535   23.7721 C   0  0  0  0  0  0  0  0  0  0  0  0
   11.0962   13.2925   23.5712 O   0  0  0  0  0  0  0  0  0  0  0  0
    9.2915   12.2084   24.6580 C   0  0  0  0  0  0  0  0  0  0  0  0
  1  2  3  0
  2  3  1  0
  3  4  1  0
  4  5  1  0
  5  6  1  0
  6  7  2  0
  7  8  1  0
  8  9  2  0
  9 10  1  0
 10 11  2  0
 10 12  1  0
 12 13  1  0
  9 14  1  0
 14 15  1  0
 14 16  2  0
 16  6  1  0
M  END
>  <distance_score>  (409) 
0.392964

>  <ref_pdb>  (409) 
A1775a

>  <ref_mols>  (409) 
A1775a

>  <alias>  (409) 
None

>  <original SMILES>  (409) 
N#CCCOc1ccc(C(=O)CCl)c(O)c1

>  <inchikey>  (409) 
DAIUOFUKXNJLLH-UHFFFAOYSA-N

>  <exports>  (409) 
['/opt/xchem-fragalysis-2/maxwin/2A_HIPPO/hippo/A71EV2A_10_recipes/Recipe_1LPVPY0_poses.sdf']

>  <original ID>  (409) 
DAIUOFUKXNJLLH-UHFFFAOYSA-N

>  <energy_score>  (409) 
-32.326439

>  <tags>  (409) 
[]

>  <HIPPO ID>  (409) 
148728

>  <name>  (409) 
DAIUOFUKXNJLLH-UHFFFAOYSA-N

$$$$
PNJINMPTESXHGT-UHFFFAOYSA-N
     RDKit          3D

 16 16  0  0  0  0  0  0  0  0999 V2000
    5.6781    8.6548   28.4806 N   0  0  0  0  0  0  0  0  0  0  0  0
    5.7787    9.2151   27.4696 C   0  0  0  0  0  0  0  0  0  0  0  0
    5.8642    9.8688   26.1593 C   0  0  0  0  0  0  0  0  0  0  0  0
    7.2642   10.0666   25.5867 C   0  0  0  0  0  0  0  0  0  0  0  0
    7.3127   10.9013   24.4496 O   0  0  0  0  0  0  0  0  0  0  0  0
    8.5898   11.3679   24.3160 C   0  0  0  0  0  0  0  0  0  0  0  0
    9.5491   10.7697   23.5163 C   0  0  0  0  0  0  0  0  0  0  0  0
   10.7461   11.4587   23.3216 C   0  0  0  0  0  0  0  0  0  0  0  0
   11.6756   10.9966   22.2550 C   0  0  0  0  0  0  0  0  0  0  0  0
   11.6345    9.8249   21.8882 O   0  0  0  0  0  0  0  0  0  0  0  0
   12.5538   12.0837   21.6582 C   0  0  0  0  0  0  0  0  0  0  0  0
   13.6990   11.4788   20.4627 Cl  0  0  0  0  0  0  0  0  0  0  0  0
   11.0020   12.6465   24.0369 C   0  0  0  0  0  0  0  0  0  0  0  0
   10.0419   13.1972   24.8760 C   0  0  0  0  0  0  0  0  0  0  0  0
    8.8307   12.5610   24.9761 C   0  0  0  0  0  0  0  0  0  0  0  0
    7.8282   13.0949   25.7268 O   0  0  0  0  0  0  0  0  0  0  0  0
  1  2  3  0
  2  3  1  0
  3  4  1  0
  4  5  1  0
  5  6  1  0
  6  7  2  0
  7  8  1  0
  8  9  1  0
  9 10  2  0
  9 11  1  0
 11 12  1  0
  8 13  2  0
 13 14  1  0
 14 15  2  0
 15 16  1  0
 15  6  1  0
M  END
>  <distance_score>  (410) 
1.245071

>  <ref_pdb>  (410) 
A1775a

>  <ref_mols>  (410) 
A1775a

>  <alias>  (410) 
None

>  <original SMILES>  (410) 
N#CCCOc1cc(C(=O)CCl)ccc1O

>  <inchikey>  (410) 
PNJINMPTESXHGT-UHFFFAOYSA-N

>  <exports>  (410) 
['/opt/xchem-fragalysis-2/maxwin/2A_HIPPO/hippo/A71EV2A_10_recipes/Recipe_1LPVPY0_poses.sdf']

>  <original ID>  (410) 
PNJINMPTESXHGT-UHFFFAOYSA-N

>  <energy_score>  (410) 
-20.407713

>  <tags>  (410) 
[]

>  <HIPPO ID>  (410) 
148766

>  <name>  (410) 
PNJINMPTESXHGT-UHFFFAOYSA-N

$$$$
GGYYFUMECIOESL-UHFFFAOYSA-N
     RDKit          3D

 16 16  0  0  0  0  0  0  0  0999 V2000
    3.5745   13.4004   25.8934 N   0  0  0  0  0  0  0  0  0  0  0  0
    4.4783   12.7344   26.1783 C   0  0  0  0  0  0  0  0  0  0  0  0
    5.5841   11.8464   26.5192 C   0  0  0  0  0  0  0  0  0  0  0  0
    6.7989   12.1796   25.6754 C   0  0  0  0  0  0  0  0  0  0  0  0
    7.7400   11.1244   25.8301 O   0  0  0  0  0  0  0  0  0  0  0  0
    8.7388   11.1493   24.8996 C   0  0  0  0  0  0  0  0  0  0  0  0
    9.5425   12.2641   24.6810 C   0  0  0  0  0  0  0  0  0  0  0  0
   10.5701   12.1963   23.7388 C   0  0  0  0  0  0  0  0  0  0  0  0
   10.8072   10.9993   23.0513 C   0  0  0  0  0  0  0  0  0  0  0  0
   11.8332   10.8420   22.0050 C   0  0  0  0  0  0  0  0  0  0  0  0
   11.9682    9.7267   21.5015 O   0  0  0  0  0  0  0  0  0  0  0  0
   12.6086   12.0663   21.5913 C   0  0  0  0  0  0  0  0  0  0  0  0
   13.8310   11.6123   20.3893 Cl  0  0  0  0  0  0  0  0  0  0  0  0
   10.0273    9.8784   23.3003 C   0  0  0  0  0  0  0  0  0  0  0  0
    8.9893    9.9754   24.1964 C   0  0  0  0  0  0  0  0  0  0  0  0
    8.1682    8.9070   24.3312 O   0  0  0  0  0  0  0  0  0  0  0  0
  1  2  3  0
  2  3  1  0
  3  4  1  0
  4  5  1  0
  5  6  1  0
  6  7  2  0
  7  8  1  0
  8  9  2  0
  9 10  1  0
 10 11  2  0
 10 12  1  0
 12 13  1  0
  9 14  1  0
 14 15  2  0
 15 16  1  0
 15  6  1  0
M  END
>  <distance_score>  (411) 
0.42061

>  <ref_pdb>  (411) 
A1775a

>  <ref_mols>  (411) 
A1775a

>  <alias>  (411) 
None

>  <original SMILES>  (411) 
N#CCCOc1ccc(C(=O)CCl)cc1O

>  <inchikey>  (411) 
GGYYFUMECIOESL-UHFFFAOYSA-N

>  <exports>  (411) 
['/opt/xchem-fragalysis-2/maxwin/2A_HIPPO/hippo/A71EV2A_10_recipes/Recipe_1LPVPY0_poses.sdf']

>  <original ID>  (411) 
GGYYFUMECIOESL-UHFFFAOYSA-N

>  <energy_score>  (411) 
-25.112528

>  <tags>  (411) 
[]

>  <HIPPO ID>  (411) 
148767

>  <name>  (411) 
GGYYFUMECIOESL-UHFFFAOYSA-N

$$$$
VJSAKTCBEOAPDE-UHFFFAOYSA-N
     RDKit          3D

 16 16  0  0  0  0  0  0  0  0999 V2000
    5.4902    9.9524   28.4564 C   0  0  0  0  0  0  0  0  0  0  0  0
    5.5358   10.8466   27.6568 C   0  0  0  0  0  0  0  0  0  0  0  0
    5.5488   11.9029   26.6355 C   0  0  0  0  0  0  0  0  0  0  0  0
    6.9554   12.2214   26.1358 C   0  0  0  0  0  0  0  0  0  0  0  0
    7.5694   11.0494   25.6142 O   0  0  0  0  0  0  0  0  0  0  0  0
    8.6772   11.1353   24.8235 C   0  0  0  0  0  0  0  0  0  0  0  0
    8.9554    9.9111   24.2054 C   0  0  0  0  0  0  0  0  0  0  0  0
   10.0098    9.7678   23.3119 C   0  0  0  0  0  0  0  0  0  0  0  0
   10.8045   10.8686   23.0021 C   0  0  0  0  0  0  0  0  0  0  0  0
   11.8439   10.7212   21.9607 C   0  0  0  0  0  0  0  0  0  0  0  0
   11.9682    9.6151   21.4393 O   0  0  0  0  0  0  0  0  0  0  0  0
   12.6635   11.9402   21.5362 C   0  0  0  0  0  0  0  0  0  0  0  0
   13.7419   11.5867   20.5123 C   0  0  0  0  0  0  0  0  0  0  0  0
   10.5763   12.0804   23.6410 C   0  0  0  0  0  0  0  0  0  0  0  0
    9.5335   12.2097   24.5628 C   0  0  0  0  0  0  0  0  0  0  0  0
    9.4759   13.7454   25.3246 Cl  0  0  0  0  0  0  0  0  0  0  0  0
  1  2  3  0
  2  3  1  0
  3  4  1  0
  4  5  1  0
  5  6  1  0
  6  7  2  0
  7  8  1  0
  8  9  2  0
  9 10  1  0
 10 11  2  0
 10 12  1  0
 12 13  1  0
  9 14  1  0
 14 15  2  0
 15 16  1  0
 15  6  1  0
M  END
>  <distance_score>  (412) 
0.326461

>  <ref_pdb>  (412) 
A1775a

>  <ref_mols>  (412) 
A1775a

>  <alias>  (412) 
None

>  <original SMILES>  (412) 
C#CCCOc1ccc(C(=O)CC)cc1Cl

>  <inchikey>  (412) 
VJSAKTCBEOAPDE-UHFFFAOYSA-N

>  <exports>  (412) 
['/opt/xchem-fragalysis-2/maxwin/2A_HIPPO/hippo/A71EV2A_10_recipes/Recipe_1LPVPY0_poses.sdf']

>  <original ID>  (412) 
VJSAKTCBEOAPDE-UHFFFAOYSA-N

>  <energy_score>  (412) 
-5.641498

>  <tags>  (412) 
[]

>  <HIPPO ID>  (412) 
149045

>  <name>  (412) 
VJSAKTCBEOAPDE-UHFFFAOYSA-N

$$$$
GLAPISRDYBPISE-SNAWJCMRSA-N
     RDKit          3D

 16 16  0  0  0  0  0  0  0  0999 V2000
    4.0776   11.9194   28.6440 C   0  0  0  0  0  0  0  0  0  0  0  0
    5.0505   12.3749   27.6065 C   0  0  0  0  0  0  0  0  0  0  0  0
    5.7225   11.5442   26.7944 C   0  0  0  0  0  0  0  0  0  0  0  0
    6.6802   11.9754   25.7287 C   0  0  0  0  0  0  0  0  0  0  0  0
    7.9336   11.3541   26.0102 O   0  0  0  0  0  0  0  0  0  0  0  0
    8.7914   11.4749   24.9581 C   0  0  0  0  0  0  0  0  0  0  0  0
    9.5813   12.6217   24.8200 C   0  0  0  0  0  0  0  0  0  0  0  0
   10.6076   12.6536   23.8643 C   0  0  0  0  0  0  0  0  0  0  0  0
   10.7342   11.5832   22.9874 C   0  0  0  0  0  0  0  0  0  0  0  0
   11.8291   11.2735   22.0581 C   0  0  0  0  0  0  0  0  0  0  0  0
   12.6626   12.4010   21.6355 C   0  0  0  0  0  0  0  0  0  0  0  0
   12.0130   10.1284   21.6399 O   0  0  0  0  0  0  0  0  0  0  0  0
    9.8135   10.5822   23.0084 C   0  0  0  0  0  0  0  0  0  0  0  0
    9.0105   10.4073   24.1070 C   0  0  0  0  0  0  0  0  0  0  0  0
    8.5942    9.1343   24.3742 O   0  0  0  0  0  0  0  0  0  0  0  0
    9.6062    8.2360   23.8737 C   0  0  0  0  0  0  0  0  0  0  0  0
  1  2  1  0
  2  3  2  0
  3  4  1  0
  4  5  1  0
  5  6  1  0
  6  7  2  0
  7  8  1  0
  8  9  2  0
  9 10  1  0
 10 11  1  0
 10 12  2  0
  9 13  1  0
 13 14  2  0
 14 15  1  0
 15 16  1  0
 14  6  1  0
M  END
>  <distance_score>  (413) 
1.044811

>  <ref_pdb>  (413) 
A1775a

>  <ref_mols>  (413) 
A1775a

>  <alias>  (413) 
None

>  <original SMILES>  (413) 
C/C=C/COc1ccc(C(C)=O)cc1OC

>  <inchikey>  (413) 
GLAPISRDYBPISE-SNAWJCMRSA-N

>  <exports>  (413) 
['/opt/xchem-fragalysis-2/maxwin/2A_HIPPO/hippo/A71EV2A_10_recipes/Recipe_1LPVPY0_poses.sdf']

>  <original ID>  (413) 
GLAPISRDYBPISE-SNAWJCMRSA-N

>  <energy_score>  (413) 
0.941718

>  <tags>  (413) 
[]

>  <HIPPO ID>  (413) 
149050

>  <name>  (413) 
GLAPISRDYBPISE-SNAWJCMRSA-N

$$$$
QBQUWKKTFCIVDR-UHFFFAOYSA-N
     RDKit          3D

 16 16  0  0  0  0  0  0  0  0999 V2000
   10.2308   14.4142   25.2879 C   0  0  0  0  0  0  0  0  0  0  0  0
    9.1897   13.4333   25.3208 O   0  0  0  0  0  0  0  0  0  0  0  0
    9.4244   12.2717   24.6317 C   0  0  0  0  0  0  0  0  0  0  0  0
   10.4308   12.1674   23.6713 C   0  0  0  0  0  0  0  0  0  0  0  0
   10.7137   10.9447   23.0572 C   0  0  0  0  0  0  0  0  0  0  0  0
   11.7747   10.8315   22.0349 C   0  0  0  0  0  0  0  0  0  0  0  0
   12.5413   12.0762   21.6504 C   0  0  0  0  0  0  0  0  0  0  0  0
   11.9865    9.7410   21.5085 O   0  0  0  0  0  0  0  0  0  0  0  0
    9.9758    9.8120   23.3808 C   0  0  0  0  0  0  0  0  0  0  0  0
    8.9337    9.9231   24.2879 C   0  0  0  0  0  0  0  0  0  0  0  0
    8.6387   11.1429   24.9053 C   0  0  0  0  0  0  0  0  0  0  0  0
    7.5969   11.0529   25.7877 O   0  0  0  0  0  0  0  0  0  0  0  0
    6.8003   12.2210   25.9446 C   0  0  0  0  0  0  0  0  0  0  0  0
    5.5081   11.8158   26.6276 C   0  0  0  0  0  0  0  0  0  0  0  0
    4.5613   12.9264   26.6201 C   0  0  0  0  0  0  0  0  0  0  0  0
    3.8039   13.8021   26.6262 N   0  0  0  0  0  0  0  0  0  0  0  0
  1  2  1  0
  2  3  1  0
  3  4  2  0
  4  5  1  0
  5  6  1  0
  6  7  1  0
  6  8  2  0
  5  9  2  0
  9 10  1  0
 10 11  2  0
 11 12  1  0
 12 13  1  0
 13 14  1  0
 14 15  1  0
 15 16  3  0
 11  3  1  0
M  END
>  <distance_score>  (414) 
0.719472

>  <ref_pdb>  (414) 
A1775a

>  <ref_mols>  (414) 
A1775a

>  <alias>  (414) 
None

>  <original SMILES>  (414) 
COc1cc(C(C)=O)ccc1OCCC#N

>  <inchikey>  (414) 
QBQUWKKTFCIVDR-UHFFFAOYSA-N

>  <exports>  (414) 
['/opt/xchem-fragalysis-2/maxwin/2A_HIPPO/hippo/A71EV2A_10_recipes/Recipe_1LPVPY0_poses.sdf']

>  <original ID>  (414) 
QBQUWKKTFCIVDR-UHFFFAOYSA-N

>  <energy_score>  (414) 
-136.131046

>  <tags>  (414) 
[]

>  <HIPPO ID>  (414) 
149084

>  <name>  (414) 
QBQUWKKTFCIVDR-UHFFFAOYSA-N

$$$$
DRTAGZUJVXDLPI-UHFFFAOYSA-N
     RDKit          3D

 16 16  0  0  0  0  0  0  0  0999 V2000
    4.8248    9.6253   27.3261 C   0  0  0  0  0  0  0  0  0  0  0  0
    5.1457   10.7065   26.9162 C   0  0  0  0  0  0  0  0  0  0  0  0
    5.5300   11.9921   26.3249 C   0  0  0  0  0  0  0  0  0  0  0  0
    7.0340   12.2325   26.3745 C   0  0  0  0  0  0  0  0  0  0  0  0
    7.7417   11.1246   25.8315 O   0  0  0  0  0  0  0  0  0  0  0  0
    8.7222   11.3615   24.9208 C   0  0  0  0  0  0  0  0  0  0  0  0
    9.5041   12.5182   24.8246 C   0  0  0  0  0  0  0  0  0  0  0  0
   10.5574   12.5869   23.8941 C   0  0  0  0  0  0  0  0  0  0  0  0
   10.7266   11.5418   22.9948 C   0  0  0  0  0  0  0  0  0  0  0  0
   11.8334   11.2808   22.0680 C   0  0  0  0  0  0  0  0  0  0  0  0
   12.6401   12.4362   21.6730 C   0  0  0  0  0  0  0  0  0  0  0  0
   12.0515   10.1496   21.6287 O   0  0  0  0  0  0  0  0  0  0  0  0
    9.8352   10.5188   22.9817 C   0  0  0  0  0  0  0  0  0  0  0  0
    9.0103   10.3175   24.0577 C   0  0  0  0  0  0  0  0  0  0  0  0
    8.6177    9.0312   24.2964 O   0  0  0  0  0  0  0  0  0  0  0  0
    9.6810    8.1688   23.8494 C   0  0  0  0  0  0  0  0  0  0  0  0
  1  2  3  0
  2  3  1  0
  3  4  1  0
  4  5  1  0
  5  6  1  0
  6  7  2  0
  7  8  1  0
  8  9  2  0
  9 10  1  0
 10 11  1  0
 10 12  2  0
  9 13  1  0
 13 14  2  0
 14 15  1  0
 15 16  1  0
 14  6  1  0
M  END
>  <distance_score>  (415) 
0.738347

>  <ref_pdb>  (415) 
A1775a

>  <ref_mols>  (415) 
A1775a

>  <alias>  (415) 
None

>  <original SMILES>  (415) 
C#CCCOc1ccc(C(C)=O)cc1OC

>  <inchikey>  (415) 
DRTAGZUJVXDLPI-UHFFFAOYSA-N

>  <exports>  (415) 
['/opt/xchem-fragalysis-2/maxwin/2A_HIPPO/hippo/A71EV2A_10_recipes/Recipe_1LPVPY0_poses.sdf']

>  <original ID>  (415) 
DRTAGZUJVXDLPI-UHFFFAOYSA-N

>  <energy_score>  (415) 
-38.134646

>  <tags>  (415) 
[]

>  <HIPPO ID>  (415) 
149165

>  <name>  (415) 
DRTAGZUJVXDLPI-UHFFFAOYSA-N

$$$$
HMLNSEKCFWROJB-HWKANZROSA-N
     RDKit          3D

 16 16  0  0  0  0  0  0  0  0999 V2000
    3.8148   12.5584   27.9280 C   0  0  0  0  0  0  0  0  0  0  0  0
    4.9129   12.8488   26.9563 C   0  0  0  0  0  0  0  0  0  0  0  0
    6.0723   12.1726   26.8975 C   0  0  0  0  0  0  0  0  0  0  0  0
    7.1864   12.5087   25.9513 C   0  0  0  0  0  0  0  0  0  0  0  0
    7.8455   11.3222   25.5704 O   0  0  0  0  0  0  0  0  0  0  0  0
    8.9137   11.4272   24.7227 C   0  0  0  0  0  0  0  0  0  0  0  0
    9.6562   12.5552   24.4025 C   0  0  0  0  0  0  0  0  0  0  0  0
   10.7111   12.4482   23.4734 C   0  0  0  0  0  0  0  0  0  0  0  0
   11.0347   11.2061   22.9058 C   0  0  0  0  0  0  0  0  0  0  0  0
   12.0239   10.9419   21.8509 C   0  0  0  0  0  0  0  0  0  0  0  0
   12.1097    9.8092   21.3790 O   0  0  0  0  0  0  0  0  0  0  0  0
   12.8572   12.0829   21.3772 C   0  0  0  0  0  0  0  0  0  0  0  0
   13.9187   11.6447   20.3784 C   0  0  0  0  0  0  0  0  0  0  0  0
   10.3457   10.0861   23.2740 C   0  0  0  0  0  0  0  0  0  0  0  0
    9.2909   10.2332   24.1253 C   0  0  0  0  0  0  0  0  0  0  0  0
    8.3845    8.8574   24.2756 Cl  0  0  0  0  0  0  0  0  0  0  0  0
  1  2  1  0
  2  3  2  0
  3  4  1  0
  4  5  1  0
  5  6  1  0
  6  7  2  0
  7  8  1  0
  8  9  2  0
  9 10  1  0
 10 11  2  0
 10 12  1  0
 12 13  1  0
  9 14  1  0
 14 15  2  0
 15 16  1  0
 15  6  1  0
M  END
>  <distance_score>  (416) 
0.600165

>  <ref_pdb>  (416) 
A1775a

>  <ref_mols>  (416) 
A1775a

>  <alias>  (416) 
None

>  <original SMILES>  (416) 
C/C=C/COc1ccc(C(=O)CC)cc1Cl

>  <inchikey>  (416) 
HMLNSEKCFWROJB-HWKANZROSA-N

>  <exports>  (416) 
['/opt/xchem-fragalysis-2/maxwin/2A_HIPPO/hippo/A71EV2A_10_recipes/Recipe_1LPVPY0_poses.sdf']

>  <original ID>  (416) 
HMLNSEKCFWROJB-HWKANZROSA-N

>  <energy_score>  (416) 
-9.746013

>  <tags>  (416) 
[]

>  <HIPPO ID>  (416) 
149220

>  <name>  (416) 
HMLNSEKCFWROJB-HWKANZROSA-N

$$$$
YJFNFQHMQJCPRG-UHFFFAOYSA-N
     RDKit          3D

 12 12  0  0  0  0  0  0  0  0999 V2000
    5.5258   11.9214   26.9612 C   0  0  0  0  0  0  0  0  0  0  0  0
    6.7837   12.2254   26.1748 C   0  0  0  0  0  0  0  0  0  0  0  0
    7.3376   10.9947   25.7241 O   0  0  0  0  0  0  0  0  0  0  0  0
    8.4462   11.0744   24.9319 C   0  0  0  0  0  0  0  0  0  0  0  0
    8.8124    9.8764   24.3205 C   0  0  0  0  0  0  0  0  0  0  0  0
    9.8966    9.8116   23.4559 C   0  0  0  0  0  0  0  0  0  0  0  0
   10.6208   10.9683   23.1834 C   0  0  0  0  0  0  0  0  0  0  0  0
   11.6891   10.8973   22.1633 C   0  0  0  0  0  0  0  0  0  0  0  0
   12.4125   12.1721   21.8050 C   0  0  0  0  0  0  0  0  0  0  0  0
   11.9334    9.8258   21.6109 O   0  0  0  0  0  0  0  0  0  0  0  0
   10.2888   12.1663   23.8247 C   0  0  0  0  0  0  0  0  0  0  0  0
    9.2076   12.2153   24.7042 C   0  0  0  0  0  0  0  0  0  0  0  0
  1  2  1  0
  2  3  1  0
  3  4  1  0
  4  5  2  0
  5  6  1  0
  6  7  2  0
  7  8  1  0
  8  9  1  0
  8 10  2  0
  7 11  1  0
 11 12  2  0
 12  4  1  0
M  END
>  <distance_score>  (417) 
0.508797

>  <ref_pdb>  (417) 
A1775a

>  <ref_mols>  (417) 
A1775a

>  <alias>  (417) 
None

>  <original SMILES>  (417) 
CCOc1ccc(C(C)=O)cc1

>  <inchikey>  (417) 
YJFNFQHMQJCPRG-UHFFFAOYSA-N

>  <exports>  (417) 
['/opt/xchem-fragalysis-2/maxwin/2A_HIPPO/hippo/A71EV2A_10_recipes/Recipe_1LPUPHX_poses.sdf', '/opt/xchem-fragalysis-2/maxwin/2A_HIPPO/hippo/A71EV2A_10_recipes/Recipe_1LPVPY0_poses.sdf']

>  <original ID>  (417) 
YJFNFQHMQJCPRG-UHFFFAOYSA-N

>  <energy_score>  (417) 
-10.553814

>  <tags>  (417) 
[]

>  <HIPPO ID>  (417) 
150492

>  <name>  (417) 
YJFNFQHMQJCPRG-UHFFFAOYSA-N

$$$$
IZIKZNOLOCUEQB-UHFFFAOYSA-N
     RDKit          3D

 13 13  0  0  0  0  0  0  0  0999 V2000
   12.4589   12.1299   21.7324 C   0  0  0  0  0  0  0  0  0  0  0  0
   11.6959   10.8923   22.1426 C   0  0  0  0  0  0  0  0  0  0  0  0
   11.8904    9.7958   21.6207 O   0  0  0  0  0  0  0  0  0  0  0  0
   10.6526   11.0353   23.1827 C   0  0  0  0  0  0  0  0  0  0  0  0
   10.4373   12.2545   23.8370 C   0  0  0  0  0  0  0  0  0  0  0  0
    9.4202   12.3689   24.7768 C   0  0  0  0  0  0  0  0  0  0  0  0
    8.6036   11.2751   25.0360 C   0  0  0  0  0  0  0  0  0  0  0  0
    7.6330   11.3482   25.9912 O   0  0  0  0  0  0  0  0  0  0  0  0
    6.5275   12.1375   25.5494 C   0  0  0  0  0  0  0  0  0  0  0  0
    5.5512   12.3316   26.6925 C   0  0  0  0  0  0  0  0  0  0  0  0
    4.7988   10.7883   27.1248 Cl  0  0  0  0  0  0  0  0  0  0  0  0
    8.8271   10.0553   24.4080 C   0  0  0  0  0  0  0  0  0  0  0  0
    9.8567    9.9280   23.4836 C   0  0  0  0  0  0  0  0  0  0  0  0
  1  2  1  0
  2  3  2  0
  2  4  1  0
  4  5  2  0
  5  6  1  0
  6  7  2  0
  7  8  1  0
  8  9  1  0
  9 10  1  0
 10 11  1  0
  7 12  1  0
 12 13  2  0
 13  4  1  0
M  END
>  <distance_score>  (418) 
0.814122

>  <ref_pdb>  (418) 
A1775a

>  <ref_mols>  (418) 
A1775a

>  <alias>  (418) 
None

>  <original SMILES>  (418) 
CC(=O)c1ccc(OCCCl)cc1

>  <inchikey>  (418) 
IZIKZNOLOCUEQB-UHFFFAOYSA-N

>  <exports>  (418) 
['/opt/xchem-fragalysis-2/maxwin/2A_HIPPO/hippo/A71EV2A_10_recipes/Recipe_1LPVPY0_poses.sdf']

>  <original ID>  (418) 
IZIKZNOLOCUEQB-UHFFFAOYSA-N

>  <energy_score>  (418) 
-4.476216

>  <tags>  (418) 
[]

>  <HIPPO ID>  (418) 
150561

>  <name>  (418) 
IZIKZNOLOCUEQB-UHFFFAOYSA-N

$$$$
QRVRYBJTVILKOK-UHFFFAOYSA-N
     RDKit          3D

 13 13  0  0  0  0  0  0  0  0999 V2000
   12.4516   12.1340   21.7416 C   0  0  0  0  0  0  0  0  0  0  0  0
   11.6734   10.9072   22.1557 C   0  0  0  0  0  0  0  0  0  0  0  0
   11.8630    9.8045   21.6449 O   0  0  0  0  0  0  0  0  0  0  0  0
   10.6241   11.0703   23.1878 C   0  0  0  0  0  0  0  0  0  0  0  0
   10.4136   12.2993   23.8268 C   0  0  0  0  0  0  0  0  0  0  0  0
    9.4103   12.4262   24.7802 C   0  0  0  0  0  0  0  0  0  0  0  0
    8.6036   11.3343   25.0691 C   0  0  0  0  0  0  0  0  0  0  0  0
    7.6980   11.4140   26.0833 O   0  0  0  0  0  0  0  0  0  0  0  0
    6.4896   12.0532   25.6738 C   0  0  0  0  0  0  0  0  0  0  0  0
    5.5386   12.1014   26.8523 C   0  0  0  0  0  0  0  0  0  0  0  0
    5.0116   10.2938   27.3580 Br  0  0  0  0  0  0  0  0  0  0  0  0
    8.8076   10.1099   24.4422 C   0  0  0  0  0  0  0  0  0  0  0  0
    9.8241    9.9703   23.5047 C   0  0  0  0  0  0  0  0  0  0  0  0
  1  2  1  0
  2  3  2  0
  2  4  1  0
  4  5  2  0
  5  6  1  0
  6  7  2  0
  7  8  1  0
  8  9  1  0
  9 10  1  0
 10 11  1  0
  7 12  1  0
 12 13  2  0
 13  4  1  0
M  END
>  <distance_score>  (419) 
0.594023

>  <ref_pdb>  (419) 
A1775a

>  <ref_mols>  (419) 
A1775a

>  <alias>  (419) 
None

>  <original SMILES>  (419) 
CC(=O)c1ccc(OCCBr)cc1

>  <inchikey>  (419) 
QRVRYBJTVILKOK-UHFFFAOYSA-N

>  <exports>  (419) 
['/opt/xchem-fragalysis-2/maxwin/2A_HIPPO/hippo/A71EV2A_10_recipes/Recipe_1LPVPY0_poses.sdf']

>  <original ID>  (419) 
QRVRYBJTVILKOK-UHFFFAOYSA-N

>  <energy_score>  (419) 
-6.711336

>  <tags>  (419) 
[]

>  <HIPPO ID>  (419) 
150562

>  <name>  (419) 
QRVRYBJTVILKOK-UHFFFAOYSA-N

$$$$
QAKGFZZJDVQCAG-UHFFFAOYSA-N
     RDKit          3D

 13 13  0  0  0  0  0  0  0  0999 V2000
   12.4153   12.1683   21.8003 C   0  0  0  0  0  0  0  0  0  0  0  0
   11.6925   10.8944   22.1639 C   0  0  0  0  0  0  0  0  0  0  0  0
   11.9323    9.8223   21.6108 O   0  0  0  0  0  0  0  0  0  0  0  0
   10.6286   10.9679   23.1886 C   0  0  0  0  0  0  0  0  0  0  0  0
    9.8977    9.8147   23.4599 C   0  0  0  0  0  0  0  0  0  0  0  0
    8.8120    9.8847   24.3222 C   0  0  0  0  0  0  0  0  0  0  0  0
    8.4494   11.0868   24.9263 C   0  0  0  0  0  0  0  0  0  0  0  0
    7.3308   11.0253   25.7058 O   0  0  0  0  0  0  0  0  0  0  0  0
    6.6763   12.2561   25.9483 C   0  0  0  0  0  0  0  0  0  0  0  0
    5.3080   12.0592   26.5616 C   0  0  0  0  0  0  0  0  0  0  0  0
    4.8254   10.9784   26.8808 O   0  0  0  0  0  0  0  0  0  0  0  0
    9.2249   12.2213   24.7123 C   0  0  0  0  0  0  0  0  0  0  0  0
   10.3075   12.1661   23.8355 C   0  0  0  0  0  0  0  0  0  0  0  0
  1  2  1  0
  2  3  2  0
  2  4  1  0
  4  5  2  0
  5  6  1  0
  6  7  2  0
  7  8  1  0
  8  9  1  0
  9 10  1  0
 10 11  2  0
  7 12  1  0
 12 13  2  0
 13  4  1  0
M  END
>  <distance_score>  (420) 
0.505234

>  <ref_pdb>  (420) 
A1775a

>  <ref_mols>  (420) 
A1775a

>  <alias>  (420) 
None

>  <original SMILES>  (420) 
CC(=O)c1ccc(OCC=O)cc1

>  <inchikey>  (420) 
QAKGFZZJDVQCAG-UHFFFAOYSA-N

>  <exports>  (420) 
['/opt/xchem-fragalysis-2/maxwin/2A_HIPPO/hippo/A71EV2A_10_recipes/Recipe_1LPVPY0_poses.sdf']

>  <original ID>  (420) 
QAKGFZZJDVQCAG-UHFFFAOYSA-N

>  <energy_score>  (420) 
-13.739554

>  <tags>  (420) 
[]

>  <HIPPO ID>  (420) 
150663

>  <name>  (420) 
QAKGFZZJDVQCAG-UHFFFAOYSA-N

$$$$
XBNORBDNHZAFON-UHFFFAOYSA-N
     RDKit          3D

 13 13  0  0  0  0  0  0  0  0999 V2000
   12.4306   12.1617   21.7836 C   0  0  0  0  0  0  0  0  0  0  0  0
   11.7084   10.8865   22.1431 C   0  0  0  0  0  0  0  0  0  0  0  0
   11.9504    9.8153   21.5891 O   0  0  0  0  0  0  0  0  0  0  0  0
   10.6437   10.9549   23.1661 C   0  0  0  0  0  0  0  0  0  0  0  0
    9.9184    9.7981   23.4376 C   0  0  0  0  0  0  0  0  0  0  0  0
    8.8360    9.8612   24.3044 C   0  0  0  0  0  0  0  0  0  0  0  0
    8.4738   11.0592   24.9168 C   0  0  0  0  0  0  0  0  0  0  0  0
    7.3647   10.9854   25.7105 O   0  0  0  0  0  0  0  0  0  0  0  0
    6.7842   12.2294   26.0819 C   0  0  0  0  0  0  0  0  0  0  0  0
    5.4890   11.9838   26.8225 C   0  0  0  0  0  0  0  0  0  0  0  0
    4.9097   13.1826   27.0886 F   0  0  0  0  0  0  0  0  0  0  0  0
    9.2384   12.1997   24.6921 C   0  0  0  0  0  0  0  0  0  0  0  0
   10.3168   12.1517   23.8109 C   0  0  0  0  0  0  0  0  0  0  0  0
  1  2  1  0
  2  3  2  0
  2  4  1  0
  4  5  2  0
  5  6  1  0
  6  7  2  0
  7  8  1  0
  8  9  1  0
  9 10  1  0
 10 11  1  0
  7 12  1  0
 12 13  2  0
 13  4  1  0
M  END
>  <distance_score>  (421) 
0.481863

>  <ref_pdb>  (421) 
A1775a

>  <ref_mols>  (421) 
A1775a

>  <alias>  (421) 
None

>  <original SMILES>  (421) 
CC(=O)c1ccc(OCCF)cc1

>  <inchikey>  (421) 
XBNORBDNHZAFON-UHFFFAOYSA-N

>  <exports>  (421) 
['/opt/xchem-fragalysis-2/maxwin/2A_HIPPO/hippo/A71EV2A_10_recipes/Recipe_1LPVPY0_poses.sdf']

>  <original ID>  (421) 
XBNORBDNHZAFON-UHFFFAOYSA-N

>  <energy_score>  (421) 
-9.150286

>  <tags>  (421) 
[]

>  <HIPPO ID>  (421) 
150709

>  <name>  (421) 
XBNORBDNHZAFON-UHFFFAOYSA-N

$$$$
XZJXCESWBMDSBO-UHFFFAOYSA-N
     RDKit          3D

 13 13  0  0  0  0  0  0  0  0999 V2000
    5.6348   11.9841   26.8887 C   0  0  0  0  0  0  0  0  0  0  0  0
    6.8779   12.2791   26.0735 C   0  0  0  0  0  0  0  0  0  0  0  0
    7.4485   11.0425   25.6678 O   0  0  0  0  0  0  0  0  0  0  0  0
    8.5413   11.1018   24.8525 C   0  0  0  0  0  0  0  0  0  0  0  0
    9.3029   12.2317   24.5622 C   0  0  0  0  0  0  0  0  0  0  0  0
   10.3776   12.1454   23.6686 C   0  0  0  0  0  0  0  0  0  0  0  0
   10.7005   10.9210   23.0784 C   0  0  0  0  0  0  0  0  0  0  0  0
   11.7583   10.7721   22.0497 C   0  0  0  0  0  0  0  0  0  0  0  0
   11.9065    9.6622   21.5378 O   0  0  0  0  0  0  0  0  0  0  0  0
   12.5784   11.9880   21.6267 C   0  0  0  0  0  0  0  0  0  0  0  0
   13.6510   11.6175   20.5939 C   0  0  0  0  0  0  0  0  0  0  0  0
    9.9661    9.7816   23.4103 C   0  0  0  0  0  0  0  0  0  0  0  0
    8.8917    9.8815   24.2827 C   0  0  0  0  0  0  0  0  0  0  0  0
  1  2  1  0
  2  3  1  0
  3  4  1  0
  4  5  2  0
  5  6  1  0
  6  7  2  0
  7  8  1  0
  8  9  2  0
  8 10  1  0
 10 11  1  0
  7 12  1  0
 12 13  2  0
 13  4  1  0
M  END
>  <distance_score>  (422) 
0.364582

>  <ref_pdb>  (422) 
A1775a

>  <ref_mols>  (422) 
A1775a

>  <alias>  (422) 
None

>  <original SMILES>  (422) 
CCOc1ccc(C(=O)CC)cc1

>  <inchikey>  (422) 
XZJXCESWBMDSBO-UHFFFAOYSA-N

>  <exports>  (422) 
['/opt/xchem-fragalysis-2/maxwin/2A_HIPPO/hippo/A71EV2A_10_recipes/Recipe_1LPUPHX_poses.sdf', '/opt/xchem-fragalysis-2/maxwin/2A_HIPPO/hippo/A71EV2A_10_recipes/Recipe_1LPVPY0_poses.sdf']

>  <original ID>  (422) 
XZJXCESWBMDSBO-UHFFFAOYSA-N

>  <energy_score>  (422) 
-14.951008

>  <tags>  (422) 
[]

>  <HIPPO ID>  (422) 
150911

>  <name>  (422) 
XZJXCESWBMDSBO-UHFFFAOYSA-N

$$$$
ZYLJLWLQPBRDLN-UHFFFAOYSA-N
     RDKit          3D

 13 13  0  0  0  0  0  0  0  0999 V2000
    5.5706   11.9799   26.9308 C   0  0  0  0  0  0  0  0  0  0  0  0
    6.8236   12.2708   26.1306 C   0  0  0  0  0  0  0  0  0  0  0  0
    7.3798   11.0329   25.7083 O   0  0  0  0  0  0  0  0  0  0  0  0
    8.4786   11.0923   24.9018 C   0  0  0  0  0  0  0  0  0  0  0  0
    9.2475   12.2204   24.6315 C   0  0  0  0  0  0  0  0  0  0  0  0
   10.3238   12.1387   23.7425 C   0  0  0  0  0  0  0  0  0  0  0  0
   10.6417   10.9190   23.1366 C   0  0  0  0  0  0  0  0  0  0  0  0
   11.7024   10.7822   22.1113 C   0  0  0  0  0  0  0  0  0  0  0  0
   11.8729    9.6695   21.6130 O   0  0  0  0  0  0  0  0  0  0  0  0
   12.4746   12.0259   21.7088 C   0  0  0  0  0  0  0  0  0  0  0  0
   13.7032   11.6010   20.4895 Cl  0  0  0  0  0  0  0  0  0  0  0  0
    9.9029    9.7793   23.4514 C   0  0  0  0  0  0  0  0  0  0  0  0
    8.8265    9.8768   24.3202 C   0  0  0  0  0  0  0  0  0  0  0  0
  1  2  1  0
  2  3  1  0
  3  4  1  0
  4  5  2  0
  5  6  1  0
  6  7  2  0
  7  8  1  0
  8  9  2  0
  8 10  1  0
 10 11  1  0
  7 12  1  0
 12 13  2  0
 13  4  1  0
M  END
>  <distance_score>  (423) 
0.399207

>  <ref_pdb>  (423) 
A1775a

>  <ref_mols>  (423) 
A1775a

>  <alias>  (423) 
None

>  <original SMILES>  (423) 
CCOc1ccc(C(=O)CCl)cc1

>  <inchikey>  (423) 
ZYLJLWLQPBRDLN-UHFFFAOYSA-N

>  <exports>  (423) 
['/opt/xchem-fragalysis-2/maxwin/2A_HIPPO/hippo/A71EV2A_10_recipes/Recipe_1LPUPHX_poses.sdf', '/opt/xchem-fragalysis-2/maxwin/2A_HIPPO/hippo/A71EV2A_10_recipes/Recipe_1LPVPY0_poses.sdf']

>  <original ID>  (423) 
ZYLJLWLQPBRDLN-UHFFFAOYSA-N

>  <energy_score>  (423) 
-17.106722

>  <tags>  (423) 
[]

>  <HIPPO ID>  (423) 
150946

>  <name>  (423) 
ZYLJLWLQPBRDLN-UHFFFAOYSA-N

$$$$
DDSDHBVTRWVNDT-UHFFFAOYSA-N
     RDKit          3D

 13 13  0  0  0  0  0  0  0  0999 V2000
    5.5747   11.9539   26.9257 C   0  0  0  0  0  0  0  0  0  0  0  0
    6.8332   12.2698   26.1439 C   0  0  0  0  0  0  0  0  0  0  0  0
    7.4091   11.0452   25.7114 O   0  0  0  0  0  0  0  0  0  0  0  0
    8.5104   11.1236   24.9076 C   0  0  0  0  0  0  0  0  0  0  0  0
    9.2793   12.2595   24.6844 C   0  0  0  0  0  0  0  0  0  0  0  0
   10.3560   12.2019   23.7969 C   0  0  0  0  0  0  0  0  0  0  0  0
   10.6760   11.0016   23.1479 C   0  0  0  0  0  0  0  0  0  0  0  0
   11.7360   10.9163   22.1237 C   0  0  0  0  0  0  0  0  0  0  0  0
   12.4664   12.1798   21.7529 C   0  0  0  0  0  0  0  0  0  0  0  0
   11.9673    9.8380   21.5795 O   0  0  0  0  0  0  0  0  0  0  0  0
    9.9473    9.8508   23.4120 C   0  0  0  0  0  0  0  0  0  0  0  0
    8.8742    9.9340   24.2743 C   0  0  0  0  0  0  0  0  0  0  0  0
    8.1370    8.8399   24.4586 F   0  0  0  0  0  0  0  0  0  0  0  0
  1  2  1  0
  2  3  1  0
  3  4  1  0
  4  5  2  0
  5  6  1  0
  6  7  2  0
  7  8  1  0
  8  9  1  0
  8 10  2  0
  7 11  1  0
 11 12  2  0
 12 13  1  0
 12  4  1  0
M  END
>  <distance_score>  (424) 
0.844542

>  <ref_pdb>  (424) 
A1775a

>  <ref_mols>  (424) 
A1775a

>  <alias>  (424) 
None

>  <original SMILES>  (424) 
CCOc1ccc(C(C)=O)cc1F

>  <inchikey>  (424) 
DDSDHBVTRWVNDT-UHFFFAOYSA-N

>  <exports>  (424) 
['/opt/xchem-fragalysis-2/maxwin/2A_HIPPO/hippo/A71EV2A_10_recipes/Recipe_1LPVPY0_poses.sdf']

>  <original ID>  (424) 
DDSDHBVTRWVNDT-UHFFFAOYSA-N

>  <energy_score>  (424) 
-9.219902

>  <tags>  (424) 
[]

>  <HIPPO ID>  (424) 
151005

>  <name>  (424) 
DDSDHBVTRWVNDT-UHFFFAOYSA-N

$$$$
LMPOOCSNZQWRBX-UHFFFAOYSA-N
     RDKit          3D

 13 13  0  0  0  0  0  0  0  0999 V2000
   12.4133   12.1755   21.8060 C   0  0  0  0  0  0  0  0  0  0  0  0
   11.6922   10.8992   22.1618 C   0  0  0  0  0  0  0  0  0  0  0  0
   11.9381    9.8284   21.6088 O   0  0  0  0  0  0  0  0  0  0  0  0
   10.6220   10.9656   23.1803 C   0  0  0  0  0  0  0  0  0  0  0  0
   10.2805   12.1616   23.8210 C   0  0  0  0  0  0  0  0  0  0  0  0
    9.1943   12.2053   24.6957 C   0  0  0  0  0  0  0  0  0  0  0  0
    8.4370   11.0600   24.9153 C   0  0  0  0  0  0  0  0  0  0  0  0
    7.3221   10.9727   25.6966 O   0  0  0  0  0  0  0  0  0  0  0  0
    6.6797   12.2000   26.0374 C   0  0  0  0  0  0  0  0  0  0  0  0
    5.4198   11.9297   26.7400 C   0  0  0  0  0  0  0  0  0  0  0  0
    4.4270   11.7381   27.3100 N   0  0  0  0  0  0  0  0  0  0  0  0
    8.8166    9.8628   24.3107 C   0  0  0  0  0  0  0  0  0  0  0  0
    9.9050    9.8045   23.4517 C   0  0  0  0  0  0  0  0  0  0  0  0
  1  2  1  0
  2  3  2  0
  2  4  1  0
  4  5  2  0
  5  6  1  0
  6  7  2  0
  7  8  1  0
  8  9  1  0
  9 10  1  0
 10 11  3  0
  7 12  1  0
 12 13  2  0
 13  4  1  0
M  END
>  <distance_score>  (425) 
0.50472

>  <ref_pdb>  (425) 
A1775a

>  <ref_mols>  (425) 
A1775a

>  <alias>  (425) 
None

>  <original SMILES>  (425) 
CC(=O)c1ccc(OCC#N)cc1

>  <inchikey>  (425) 
LMPOOCSNZQWRBX-UHFFFAOYSA-N

>  <exports>  (425) 
['/opt/xchem-fragalysis-2/maxwin/2A_HIPPO/hippo/A71EV2A_10_recipes/Recipe_1LPVPY0_poses.sdf']

>  <original ID>  (425) 
LMPOOCSNZQWRBX-UHFFFAOYSA-N

>  <energy_score>  (425) 
-8.520165

>  <tags>  (425) 
[]

>  <HIPPO ID>  (425) 
151011

>  <name>  (425) 
LMPOOCSNZQWRBX-UHFFFAOYSA-N

$$$$
CBMYGMRLSCLFPD-UHFFFAOYSA-N
     RDKit          3D

 13 13  0  0  0  0  0  0  0  0999 V2000
    5.3652   11.7385   26.6674 C   0  0  0  0  0  0  0  0  0  0  0  0
    6.4636   12.0544   25.6725 C   0  0  0  0  0  0  0  0  0  0  0  0
    7.5895   11.2427   26.0026 O   0  0  0  0  0  0  0  0  0  0  0  0
    8.5537   11.2366   25.0293 C   0  0  0  0  0  0  0  0  0  0  0  0
    8.8108   10.0162   24.4078 C   0  0  0  0  0  0  0  0  0  0  0  0
    9.8449    9.8990   23.4880 C   0  0  0  0  0  0  0  0  0  0  0  0
   10.5993   11.0246   23.1602 C   0  0  0  0  0  0  0  0  0  0  0  0
   11.6662   10.8914   22.1426 C   0  0  0  0  0  0  0  0  0  0  0  0
   12.4395   12.1315   21.7570 C   0  0  0  0  0  0  0  0  0  0  0  0
   11.8793    9.7960   21.6252 O   0  0  0  0  0  0  0  0  0  0  0  0
   10.3311   12.2528   23.7759 C   0  0  0  0  0  0  0  0  0  0  0  0
    9.3613   12.3503   24.7704 C   0  0  0  0  0  0  0  0  0  0  0  0
    9.1184   13.5961   25.3724 N   0  0  0  0  0  0  0  0  0  0  0  0
  1  2  1  0
  2  3  1  0
  3  4  1  0
  4  5  2  0
  5  6  1  0
  6  7  2  0
  7  8  1  0
  8  9  1  0
  8 10  2  0
  7 11  1  0
 11 12  2  0
 12 13  1  0
 12  4  1  0
M  END
>  <distance_score>  (426) 
0.566668

>  <ref_pdb>  (426) 
A1775a

>  <ref_mols>  (426) 
A1775a

>  <alias>  (426) 
None

>  <original SMILES>  (426) 
CCOc1ccc(C(C)=O)cc1N

>  <inchikey>  (426) 
CBMYGMRLSCLFPD-UHFFFAOYSA-N

>  <exports>  (426) 
['/opt/xchem-fragalysis-2/maxwin/2A_HIPPO/hippo/A71EV2A_10_recipes/Recipe_1LPVPY0_poses.sdf']

>  <original ID>  (426) 
CBMYGMRLSCLFPD-UHFFFAOYSA-N

>  <energy_score>  (426) 
-28.821442

>  <tags>  (426) 
[]

>  <HIPPO ID>  (426) 
151023

>  <name>  (426) 
CBMYGMRLSCLFPD-UHFFFAOYSA-N

$$$$
FLMVKFTYGACBNH-UHFFFAOYSA-N
     RDKit          3D

 13 14  0  0  0  0  0  0  0  0999 V2000
    5.7021   11.9810   26.8230 C   0  0  0  0  0  0  0  0  0  0  0  0
    6.9205   12.2561   25.9638 C   0  0  0  0  0  0  0  0  0  0  0  0
    7.4940   11.0094   25.5911 O   0  0  0  0  0  0  0  0  0  0  0  0
    8.5817   11.0454   24.7633 C   0  0  0  0  0  0  0  0  0  0  0  0
    8.9346    9.7890   24.2386 C   0  0  0  0  0  0  0  0  0  0  0  0
   10.0050    9.6343   23.3695 C   0  0  0  0  0  0  0  0  0  0  0  0
   10.6895   10.7769   23.0317 C   0  0  0  0  0  0  0  0  0  0  0  0
   10.3766   12.0337   23.5310 C   0  0  0  0  0  0  0  0  0  0  0  0
    9.3210   12.1807   24.4192 C   0  0  0  0  0  0  0  0  0  0  0  0
   11.2539   13.1006   22.9549 C   0  0  0  0  0  0  0  0  0  0  0  0
   12.2050   12.3603   22.0212 C   0  0  0  0  0  0  0  0  0  0  0  0
   11.7681   10.9120   22.0773 C   0  0  0  0  0  0  0  0  0  0  0  0
   12.1921    9.9716   21.4283 O   0  0  0  0  0  0  0  0  0  0  0  0
  1  2  1  0
  2  3  1  0
  3  4  1  0
  4  5  2  0
  5  6  1  0
  6  7  2  0
  7  8  1  0
  8  9  2  0
  8 10  1  0
 10 11  1  0
 11 12  1  0
 12 13  2  0
  9  4  1  0
 12  7  1  0
M  END
>  <distance_score>  (427) 
1.136258

>  <ref_pdb>  (427) 
A1775a

>  <ref_mols>  (427) 
A1775a

>  <alias>  (427) 
None

>  <original SMILES>  (427) 
CCOc1ccc2c(c1)CCC2=O

>  <inchikey>  (427) 
FLMVKFTYGACBNH-UHFFFAOYSA-N

>  <exports>  (427) 
['/opt/xchem-fragalysis-2/maxwin/2A_HIPPO/hippo/A71EV2A_10_recipes/Recipe_1LPUPHX_poses.sdf', '/opt/xchem-fragalysis-2/maxwin/2A_HIPPO/hippo/A71EV2A_10_recipes/Recipe_1LPVPY0_poses.sdf']

>  <original ID>  (427) 
FLMVKFTYGACBNH-UHFFFAOYSA-N

>  <energy_score>  (427) 
-21.245146

>  <tags>  (427) 
[]

>  <HIPPO ID>  (427) 
151062

>  <name>  (427) 
FLMVKFTYGACBNH-UHFFFAOYSA-N

$$$$
REUVZTCTXBQZKJ-ONEGZZNKSA-N
     RDKit          3D

 14 14  0  0  0  0  0  0  0  0999 V2000
    3.8115   10.5320   28.0190 C   0  0  0  0  0  0  0  0  0  0  0  0
    5.0471   10.7389   27.2082 C   0  0  0  0  0  0  0  0  0  0  0  0
    5.4507   11.9323   26.7440 C   0  0  0  0  0  0  0  0  0  0  0  0
    6.7058   12.1959   25.9667 C   0  0  0  0  0  0  0  0  0  0  0  0
    7.3785   10.9767   25.6782 O   0  0  0  0  0  0  0  0  0  0  0  0
    8.4819   11.0603   24.8834 C   0  0  0  0  0  0  0  0  0  0  0  0
    8.8599    9.8586   24.2877 C   0  0  0  0  0  0  0  0  0  0  0  0
    9.9441    9.7979   23.4253 C   0  0  0  0  0  0  0  0  0  0  0  0
   10.6557   10.9605   23.1438 C   0  0  0  0  0  0  0  0  0  0  0  0
   11.7242   10.8899   22.1257 C   0  0  0  0  0  0  0  0  0  0  0  0
   12.4502   12.1627   21.7686 C   0  0  0  0  0  0  0  0  0  0  0  0
   11.9665    9.8179   21.5734 O   0  0  0  0  0  0  0  0  0  0  0  0
   10.3123   12.1618   23.7729 C   0  0  0  0  0  0  0  0  0  0  0  0
    9.2304   12.2080   24.6499 C   0  0  0  0  0  0  0  0  0  0  0  0
  1  2  1  0
  2  3  2  0
  3  4  1  0
  4  5  1  0
  5  6  1  0
  6  7  2  0
  7  8  1  0
  8  9  2  0
  9 10  1  0
 10 11  1  0
 10 12  2  0
  9 13  1  0
 13 14  2  0
 14  6  1  0
M  END
>  <distance_score>  (428) 
0.477903

>  <ref_pdb>  (428) 
A1775a

>  <ref_mols>  (428) 
A1775a

>  <alias>  (428) 
None

>  <original SMILES>  (428) 
C/C=C/COc1ccc(C(C)=O)cc1

>  <inchikey>  (428) 
REUVZTCTXBQZKJ-ONEGZZNKSA-N

>  <exports>  (428) 
['/opt/xchem-fragalysis-2/maxwin/2A_HIPPO/hippo/A71EV2A_10_recipes/Recipe_1LPVPY0_poses.sdf']

>  <original ID>  (428) 
REUVZTCTXBQZKJ-ONEGZZNKSA-N

>  <energy_score>  (428) 
-9.879765

>  <tags>  (428) 
[]

>  <HIPPO ID>  (428) 
151069

>  <name>  (428) 
REUVZTCTXBQZKJ-ONEGZZNKSA-N

$$$$
IADFYSLRLWUKCF-UHFFFAOYSA-N
     RDKit          3D

 14 14  0  0  0  0  0  0  0  0999 V2000
   13.6472   11.6250   20.5977 C   0  0  0  0  0  0  0  0  0  0  0  0
   12.5743   11.9954   21.6314 C   0  0  0  0  0  0  0  0  0  0  0  0
   11.7592   10.7773   22.0527 C   0  0  0  0  0  0  0  0  0  0  0  0
   11.9193    9.6657   21.5476 O   0  0  0  0  0  0  0  0  0  0  0  0
   10.6951   10.9187   23.0758 C   0  0  0  0  0  0  0  0  0  0  0  0
    9.9771    9.7682   23.4012 C   0  0  0  0  0  0  0  0  0  0  0  0
    8.8952    9.8515   24.2627 C   0  0  0  0  0  0  0  0  0  0  0  0
    8.5200   11.0649   24.8320 C   0  0  0  0  0  0  0  0  0  0  0  0
    7.4188   10.9728   25.6258 O   0  0  0  0  0  0  0  0  0  0  0  0
    6.8512   12.1673   26.1491 C   0  0  0  0  0  0  0  0  0  0  0  0
    5.6245   11.7501   26.9367 C   0  0  0  0  0  0  0  0  0  0  0  0
    4.8708   13.2417   27.9092 Br  0  0  0  0  0  0  0  0  0  0  0  0
    9.2626   12.2075   24.5512 C   0  0  0  0  0  0  0  0  0  0  0  0
   10.3474   12.1381   23.6651 C   0  0  0  0  0  0  0  0  0  0  0  0
  1  2  1  0
  2  3  1  0
  3  4  2  0
  3  5  1  0
  5  6  2  0
  6  7  1  0
  7  8  2  0
  8  9  1  0
  9 10  1  0
 10 11  1  0
 11 12  1  0
  8 13  1  0
 13 14  2  0
 14  5  1  0
M  END
>  <distance_score>  (429) 
0.380596

>  <ref_pdb>  (429) 
A1775a

>  <ref_mols>  (429) 
A1775a

>  <alias>  (429) 
None

>  <original SMILES>  (429) 
CCC(=O)c1ccc(OCCBr)cc1

>  <inchikey>  (429) 
IADFYSLRLWUKCF-UHFFFAOYSA-N

>  <exports>  (429) 
['/opt/xchem-fragalysis-2/maxwin/2A_HIPPO/hippo/A71EV2A_10_recipes/Recipe_1LPVPY0_poses.sdf']

>  <original ID>  (429) 
IADFYSLRLWUKCF-UHFFFAOYSA-N

>  <energy_score>  (429) 
-16.319156

>  <tags>  (429) 
[]

>  <HIPPO ID>  (429) 
151400

>  <name>  (429) 
IADFYSLRLWUKCF-UHFFFAOYSA-N

$$$$
PARRSGRSMOSSPV-UHFFFAOYSA-N
     RDKit          3D

 14 14  0  0  0  0  0  0  0  0999 V2000
   11.7908    9.7009   21.6704 O   0  0  0  0  0  0  0  0  0  0  0  0
   11.6729   10.8345   22.1340 C   0  0  0  0  0  0  0  0  0  0  0  0
   12.4898   12.0375   21.6912 C   0  0  0  0  0  0  0  0  0  0  0  0
   13.7038   11.5660   20.4831 Cl  0  0  0  0  0  0  0  0  0  0  0  0
   10.6359   11.0606   23.1726 C   0  0  0  0  0  0  0  0  0  0  0  0
   10.4616   12.3084   23.7857 C   0  0  0  0  0  0  0  0  0  0  0  0
    9.4707   12.4807   24.7472 C   0  0  0  0  0  0  0  0  0  0  0  0
    8.6380   11.4177   25.0699 C   0  0  0  0  0  0  0  0  0  0  0  0
    7.7426   11.5587   26.0875 O   0  0  0  0  0  0  0  0  0  0  0  0
    6.4950   12.0733   25.6214 C   0  0  0  0  0  0  0  0  0  0  0  0
    5.5193   12.1231   26.7793 C   0  0  0  0  0  0  0  0  0  0  0  0
    5.0531   10.3105   27.3256 Br  0  0  0  0  0  0  0  0  0  0  0  0
    8.8015   10.1757   24.4684 C   0  0  0  0  0  0  0  0  0  0  0  0
    9.8063    9.9905   23.5252 C   0  0  0  0  0  0  0  0  0  0  0  0
  1  2  2  0
  2  3  1  0
  3  4  1  0
  2  5  1  0
  5  6  2  0
  6  7  1  0
  7  8  2  0
  8  9  1  0
  9 10  1  0
 10 11  1  0
 11 12  1  0
  8 13  1  0
 13 14  2  0
 14  5  1  0
M  END
>  <distance_score>  (430) 
0.566087

>  <ref_pdb>  (430) 
A1775a

>  <ref_mols>  (430) 
A1775a

>  <alias>  (430) 
None

>  <original SMILES>  (430) 
O=C(CCl)c1ccc(OCCBr)cc1

>  <inchikey>  (430) 
PARRSGRSMOSSPV-UHFFFAOYSA-N

>  <exports>  (430) 
['/opt/xchem-fragalysis-2/maxwin/2A_HIPPO/hippo/A71EV2A_10_recipes/Recipe_1LPVPY0_poses.sdf']

>  <original ID>  (430) 
PARRSGRSMOSSPV-UHFFFAOYSA-N

>  <energy_score>  (430) 
-13.201741

>  <tags>  (430) 
[]

>  <HIPPO ID>  (430) 
151430

>  <name>  (430) 
PARRSGRSMOSSPV-UHFFFAOYSA-N

$$$$
NUABJPLWSGHEBM-UHFFFAOYSA-N
     RDKit          3D

 14 14  0  0  0  0  0  0  0  0999 V2000
   12.4368   12.1749   21.7790 C   0  0  0  0  0  0  0  0  0  0  0  0
   11.7235   10.8970   22.1408 C   0  0  0  0  0  0  0  0  0  0  0  0
   11.9684    9.8275   21.5845 O   0  0  0  0  0  0  0  0  0  0  0  0
   10.6638   10.9597   23.1687 C   0  0  0  0  0  0  0  0  0  0  0  0
   10.3383   12.1504   23.8284 C   0  0  0  0  0  0  0  0  0  0  0  0
    9.2483   12.1949   24.6966 C   0  0  0  0  0  0  0  0  0  0  0  0
    8.4732   11.0578   24.8853 C   0  0  0  0  0  0  0  0  0  0  0  0
    7.3308   10.9759   25.6185 O   0  0  0  0  0  0  0  0  0  0  0  0
    6.8063   12.1720   26.1771 C   0  0  0  0  0  0  0  0  0  0  0  0
    5.3886   11.9229   26.6806 C   0  0  0  0  0  0  0  0  0  0  0  0
    5.2149   10.5409   27.3018 C   0  0  0  0  0  0  0  0  0  0  0  0
    3.8661   10.3901   27.8363 N   0  0  0  0  0  0  0  0  0  0  0  0
    8.8432    9.8620   24.2715 C   0  0  0  0  0  0  0  0  0  0  0  0
    9.9363    9.8012   23.4218 C   0  0  0  0  0  0  0  0  0  0  0  0
  1  2  1  0
  2  3  2  0
  2  4  1  0
  4  5  2  0
  5  6  1  0
  6  7  2  0
  7  8  1  0
  8  9  1  0
  9 10  1  0
 10 11  1  0
 11 12  1  0
  7 13  1  0
 13 14  2  0
 14  4  1  0
M  END
>  <distance_score>  (431) 
0.847323

>  <ref_pdb>  (431) 
A1775a

>  <ref_mols>  (431) 
A1775a

>  <alias>  (431) 
None

>  <original SMILES>  (431) 
CC(=O)c1ccc(OCCCN)cc1

>  <inchikey>  (431) 
NUABJPLWSGHEBM-UHFFFAOYSA-N

>  <exports>  (431) 
['/opt/xchem-fragalysis-2/maxwin/2A_HIPPO/hippo/A71EV2A_10_recipes/Recipe_1LPVPY0_poses.sdf']

>  <original ID>  (431) 
NUABJPLWSGHEBM-UHFFFAOYSA-N

>  <energy_score>  (431) 
-10.939868

>  <tags>  (431) 
[]

>  <HIPPO ID>  (431) 
152001

>  <name>  (431) 
NUABJPLWSGHEBM-UHFFFAOYSA-N

$$$$
DNPBHMIHBASKKP-UHFFFAOYSA-N
     RDKit          3D

 14 14  0  0  0  0  0  0  0  0999 V2000
    3.7398   13.9319   25.9109 C   0  0  0  0  0  0  0  0  0  0  0  0
    4.4656   13.0352   26.2431 C   0  0  0  0  0  0  0  0  0  0  0  0
    5.4062   11.9603   26.5766 C   0  0  0  0  0  0  0  0  0  0  0  0
    6.7465   12.2185   25.9017 C   0  0  0  0  0  0  0  0  0  0  0  0
    7.4540   10.9884   25.7686 O   0  0  0  0  0  0  0  0  0  0  0  0
    8.5365   11.0490   24.9368 C   0  0  0  0  0  0  0  0  0  0  0  0
    9.3058   12.1874   24.7136 C   0  0  0  0  0  0  0  0  0  0  0  0
   10.3659   12.1412   23.8131 C   0  0  0  0  0  0  0  0  0  0  0  0
   10.6710   10.9475   23.1522 C   0  0  0  0  0  0  0  0  0  0  0  0
   11.7271   10.8787   22.1213 C   0  0  0  0  0  0  0  0  0  0  0  0
   12.4487   12.1529   21.7574 C   0  0  0  0  0  0  0  0  0  0  0  0
   11.9647    9.8073   21.5661 O   0  0  0  0  0  0  0  0  0  0  0  0
    9.9384    9.7934   23.4204 C   0  0  0  0  0  0  0  0  0  0  0  0
    8.8718    9.8543   24.3058 C   0  0  0  0  0  0  0  0  0  0  0  0
  1  2  3  0
  2  3  1  0
  3  4  1  0
  4  5  1  0
  5  6  1  0
  6  7  2  0
  7  8  1  0
  8  9  2  0
  9 10  1  0
 10 11  1  0
 10 12  2  0
  9 13  1  0
 13 14  2  0
 14  6  1  0
M  END
>  <distance_score>  (432) 
0.834272

>  <ref_pdb>  (432) 
A1775a

>  <ref_mols>  (432) 
A1775a

>  <alias>  (432) 
None

>  <original SMILES>  (432) 
C#CCCOc1ccc(C(C)=O)cc1

>  <inchikey>  (432) 
DNPBHMIHBASKKP-UHFFFAOYSA-N

>  <exports>  (432) 
['/opt/xchem-fragalysis-2/maxwin/2A_HIPPO/hippo/A71EV2A_10_recipes/Recipe_1LPVPY0_poses.sdf']

>  <original ID>  (432) 
DNPBHMIHBASKKP-UHFFFAOYSA-N

>  <energy_score>  (432) 
-8.484379

>  <tags>  (432) 
[]

>  <HIPPO ID>  (432) 
152015

>  <name>  (432) 
DNPBHMIHBASKKP-UHFFFAOYSA-N

$$$$
BDYQERBWLKZMQL-UHFFFAOYSA-N
     RDKit          3D

 14 14  0  0  0  0  0  0  0  0999 V2000
    5.0613   10.6043   27.2266 C   0  0  0  0  0  0  0  0  0  0  0  0
    5.4480   11.8224   26.8206 C   0  0  0  0  0  0  0  0  0  0  0  0
    4.4142   13.3261   27.2415 Br  0  0  0  0  0  0  0  0  0  0  0  0
    6.6893   12.1329   26.0254 C   0  0  0  0  0  0  0  0  0  0  0  0
    7.3713   10.9270   25.6912 O   0  0  0  0  0  0  0  0  0  0  0  0
    8.4675   11.0325   24.8903 C   0  0  0  0  0  0  0  0  0  0  0  0
    8.8567    9.8380   24.2871 C   0  0  0  0  0  0  0  0  0  0  0  0
    9.9413    9.7904   23.4252 C   0  0  0  0  0  0  0  0  0  0  0  0
   10.6420   10.9601   23.1489 C   0  0  0  0  0  0  0  0  0  0  0  0
   11.7149   10.8987   22.1349 C   0  0  0  0  0  0  0  0  0  0  0  0
   12.4363   12.1756   21.7860 C   0  0  0  0  0  0  0  0  0  0  0  0
   11.9655    9.8296   21.5806 O   0  0  0  0  0  0  0  0  0  0  0  0
   10.2839   12.1566   23.7800 C   0  0  0  0  0  0  0  0  0  0  0  0
    9.2009   12.1895   24.6576 C   0  0  0  0  0  0  0  0  0  0  0  0
  1  2  2  0
  2  3  1  0
  2  4  1  0
  4  5  1  0
  5  6  1  0
  6  7  2  0
  7  8  1  0
  8  9  2  0
  9 10  1  0
 10 11  1  0
 10 12  2  0
  9 13  1  0
 13 14  2  0
 14  6  1  0
M  END
>  <distance_score>  (433) 
0.494856

>  <ref_pdb>  (433) 
A1775a

>  <ref_mols>  (433) 
A1775a

>  <alias>  (433) 
None

>  <original SMILES>  (433) 
C=C(Br)COc1ccc(C(C)=O)cc1

>  <inchikey>  (433) 
BDYQERBWLKZMQL-UHFFFAOYSA-N

>  <exports>  (433) 
['/opt/xchem-fragalysis-2/maxwin/2A_HIPPO/hippo/A71EV2A_10_recipes/Recipe_1LPVPY0_poses.sdf']

>  <original ID>  (433) 
BDYQERBWLKZMQL-UHFFFAOYSA-N

>  <energy_score>  (433) 
-9.001743

>  <tags>  (433) 
[]

>  <HIPPO ID>  (433) 
152118

>  <name>  (433) 
BDYQERBWLKZMQL-UHFFFAOYSA-N

$$$$
XKGAJQNHILUEDO-UHFFFAOYSA-N
     RDKit          3D

 14 14  0  0  0  0  0  0  0  0999 V2000
    6.2878   12.8849   24.8547 C   0  0  0  0  0  0  0  0  0  0  0  0
    6.4482   11.9490   25.8044 C   0  0  0  0  0  0  0  0  0  0  0  0
    5.3488   11.6750   26.8016 C   0  0  0  0  0  0  0  0  0  0  0  0
    6.0030   11.9253   28.7992 I   0  0  0  0  0  0  0  0  0  0  0  0
    7.4979   11.0480   25.8856 O   0  0  0  0  0  0  0  0  0  0  0  0
    8.5419   11.0811   25.0020 C   0  0  0  0  0  0  0  0  0  0  0  0
    8.8217    9.9004   24.3203 C   0  0  0  0  0  0  0  0  0  0  0  0
    9.8800    9.8391   23.4268 C   0  0  0  0  0  0  0  0  0  0  0  0
   10.6562   10.9759   23.2069 C   0  0  0  0  0  0  0  0  0  0  0  0
   11.7001   10.9056   22.1624 C   0  0  0  0  0  0  0  0  0  0  0  0
   12.4129   12.1808   21.7887 C   0  0  0  0  0  0  0  0  0  0  0  0
   11.9317    9.8343   21.6037 O   0  0  0  0  0  0  0  0  0  0  0  0
   10.4104   12.1487   23.9329 C   0  0  0  0  0  0  0  0  0  0  0  0
    9.3642   12.1922   24.8501 C   0  0  0  0  0  0  0  0  0  0  0  0
  1  2  2  0
  2  3  1  0
  3  4  1  0
  2  5  1  0
  5  6  1  0
  6  7  2  0
  7  8  1  0
  8  9  2  0
  9 10  1  0
 10 11  1  0
 10 12  2  0
  9 13  1  0
 13 14  2  0
 14  6  1  0
M  END
>  <distance_score>  (434) 
0.550055

>  <ref_pdb>  (434) 
A1775a

>  <ref_mols>  (434) 
A1775a

>  <alias>  (434) 
None

>  <original SMILES>  (434) 
C=C(CI)Oc1ccc(C(C)=O)cc1

>  <inchikey>  (434) 
XKGAJQNHILUEDO-UHFFFAOYSA-N

>  <exports>  (434) 
['/opt/xchem-fragalysis-2/maxwin/2A_HIPPO/hippo/A71EV2A_10_recipes/Recipe_1LPVPY0_poses.sdf']

>  <original ID>  (434) 
XKGAJQNHILUEDO-UHFFFAOYSA-N

>  <energy_score>  (434) 
-22.492265

>  <tags>  (434) 
[]

>  <HIPPO ID>  (434) 
152119

>  <name>  (434) 
XKGAJQNHILUEDO-UHFFFAOYSA-N

$$$$
YCKJPYFSHPWTRA-UHFFFAOYSA-N
     RDKit          3D

 14 14  0  0  0  0  0  0  0  0999 V2000
   12.4514   12.1595   21.7654 C   0  0  0  0  0  0  0  0  0  0  0  0
   11.7202   10.8904   22.1257 C   0  0  0  0  0  0  0  0  0  0  0  0
   11.9569    9.8150   21.5782 O   0  0  0  0  0  0  0  0  0  0  0  0
   10.6535   10.9664   23.1445 C   0  0  0  0  0  0  0  0  0  0  0  0
    9.9384    9.8054   23.4349 C   0  0  0  0  0  0  0  0  0  0  0  0
    8.8629    9.8653   24.3112 C   0  0  0  0  0  0  0  0  0  0  0  0
    8.4966   11.0662   24.9157 C   0  0  0  0  0  0  0  0  0  0  0  0
    7.4125   10.9779   25.7420 O   0  0  0  0  0  0  0  0  0  0  0  0
    6.7163   12.1981   25.9891 C   0  0  0  0  0  0  0  0  0  0  0  0
    5.4223   11.8670   26.7013 C   0  0  0  0  0  0  0  0  0  0  0  0
    4.1795   13.3455   26.5414 Br  0  0  0  0  0  0  0  0  0  0  0  0
    9.2502   12.2077   24.6514 C   0  0  0  0  0  0  0  0  0  0  0  0
    8.9727   13.3805   25.2369 F   0  0  0  0  0  0  0  0  0  0  0  0
   10.3188   12.1693   23.7678 C   0  0  0  0  0  0  0  0  0  0  0  0
  1  2  1  0
  2  3  2  0
  2  4  1  0
  4  5  2  0
  5  6  1  0
  6  7  2  0
  7  8  1  0
  8  9  1  0
  9 10  1  0
 10 11  1  0
  7 12  1  0
 12 13  1  0
 12 14  2  0
 14  4  1  0
M  END
>  <distance_score>  (435) 
0.480181

>  <ref_pdb>  (435) 
A1775a

>  <ref_mols>  (435) 
A1775a

>  <alias>  (435) 
None

>  <original SMILES>  (435) 
CC(=O)c1ccc(OCCBr)c(F)c1

>  <inchikey>  (435) 
YCKJPYFSHPWTRA-UHFFFAOYSA-N

>  <exports>  (435) 
['/opt/xchem-fragalysis-2/maxwin/2A_HIPPO/hippo/A71EV2A_10_recipes/Recipe_1LPVPY0_poses.sdf']

>  <original ID>  (435) 
YCKJPYFSHPWTRA-UHFFFAOYSA-N

>  <energy_score>  (435) 
-9.913394

>  <tags>  (435) 
[]

>  <HIPPO ID>  (435) 
152791

>  <name>  (435) 
YCKJPYFSHPWTRA-UHFFFAOYSA-N

$$$$
YYLCJWIQUFHYMY-UHFFFAOYSA-N
     RDKit          3D

 14 14  0  0  0  0  0  0  0  0999 V2000
    5.1668    9.7938   27.1566 C   0  0  0  0  0  0  0  0  0  0  0  0
    4.8544   11.2757   27.1847 C   0  0  0  0  0  0  0  0  0  0  0  0
    6.0673   12.1435   27.4796 C   0  0  0  0  0  0  0  0  0  0  0  0
    7.0120   12.3529   26.3009 C   0  0  0  0  0  0  0  0  0  0  0  0
    7.5098   11.1161   25.8153 O   0  0  0  0  0  0  0  0  0  0  0  0
    8.5490   11.1680   24.9333 C   0  0  0  0  0  0  0  0  0  0  0  0
    9.2985   12.2975   24.6211 C   0  0  0  0  0  0  0  0  0  0  0  0
   10.3496   12.2084   23.7129 C   0  0  0  0  0  0  0  0  0  0  0  0
   10.6610   10.9840   23.1169 C   0  0  0  0  0  0  0  0  0  0  0  0
   11.7285   10.8710   22.1010 C   0  0  0  0  0  0  0  0  0  0  0  0
   12.4850   12.1222   21.7228 C   0  0  0  0  0  0  0  0  0  0  0  0
   11.9507    9.7834   21.5720 O   0  0  0  0  0  0  0  0  0  0  0  0
    9.9263    9.8459   23.4405 C   0  0  0  0  0  0  0  0  0  0  0  0
    8.8702    9.9490   24.3373 C   0  0  0  0  0  0  0  0  0  0  0  0
  1  2  1  0
  2  3  1  0
  3  4  1  0
  4  5  1  0
  5  6  1  0
  6  7  2  0
  7  8  1  0
  8  9  2  0
  9 10  1  0
 10 11  1  0
 10 12  2  0
  9 13  1  0
 13 14  2  0
 14  6  1  0
M  END
>  <distance_score>  (436) 
0.540298

>  <ref_pdb>  (436) 
A1775a

>  <ref_mols>  (436) 
A1775a

>  <alias>  (436) 
None

>  <original SMILES>  (436) 
CCCCOc1ccc(C(C)=O)cc1

>  <inchikey>  (436) 
YYLCJWIQUFHYMY-UHFFFAOYSA-N

>  <exports>  (436) 
['/opt/xchem-fragalysis-2/maxwin/2A_HIPPO/hippo/A71EV2A_10_recipes/Recipe_1LPVPY0_poses.sdf']

>  <original ID>  (436) 
YYLCJWIQUFHYMY-UHFFFAOYSA-N

>  <energy_score>  (436) 
-10.13651

>  <tags>  (436) 
[]

>  <HIPPO ID>  (436) 
153093

>  <name>  (436) 
YYLCJWIQUFHYMY-UHFFFAOYSA-N

$$$$
LLINVKTVVFKUON-UHFFFAOYSA-N
     RDKit          3D

 14 14  0  0  0  0  0  0  0  0999 V2000
   12.4555   12.1551   21.7541 C   0  0  0  0  0  0  0  0  0  0  0  0
   11.7264   10.8857   22.1180 C   0  0  0  0  0  0  0  0  0  0  0  0
   11.9628    9.8109   21.5688 O   0  0  0  0  0  0  0  0  0  0  0  0
   10.6648   10.9624   23.1428 C   0  0  0  0  0  0  0  0  0  0  0  0
    9.9395    9.8066   23.4229 C   0  0  0  0  0  0  0  0  0  0  0  0
    8.8753    9.8696   24.3103 C   0  0  0  0  0  0  0  0  0  0  0  0
    8.5352   11.0687   24.9305 C   0  0  0  0  0  0  0  0  0  0  0  0
    7.4726   11.0053   25.7841 O   0  0  0  0  0  0  0  0  0  0  0  0
    6.6848   12.1920   25.8441 C   0  0  0  0  0  0  0  0  0  0  0  0
    5.4323   11.8833   26.6421 C   0  0  0  0  0  0  0  0  0  0  0  0
    4.4058   12.8888   26.3836 C   0  0  0  0  0  0  0  0  0  0  0  0
    3.5647   13.6539   26.1641 N   0  0  0  0  0  0  0  0  0  0  0  0
    9.2910   12.2115   24.6915 C   0  0  0  0  0  0  0  0  0  0  0  0
   10.3498   12.1622   23.7889 C   0  0  0  0  0  0  0  0  0  0  0  0
  1  2  1  0
  2  3  2  0
  2  4  1  0
  4  5  2  0
  5  6  1  0
  6  7  2  0
  7  8  1  0
  8  9  1  0
  9 10  1  0
 10 11  1  0
 11 12  3  0
  7 13  1  0
 13 14  2  0
 14  4  1  0
M  END
>  <distance_score>  (437) 
0.47786

>  <ref_pdb>  (437) 
A1775a

>  <ref_mols>  (437) 
A1775a

>  <alias>  (437) 
None

>  <original SMILES>  (437) 
CC(=O)c1ccc(OCCC#N)cc1

>  <inchikey>  (437) 
LLINVKTVVFKUON-UHFFFAOYSA-N

>  <exports>  (437) 
['/opt/xchem-fragalysis-2/maxwin/2A_HIPPO/hippo/A71EV2A_10_recipes/Recipe_1LPVPY0_poses.sdf']

>  <original ID>  (437) 
LLINVKTVVFKUON-UHFFFAOYSA-N

>  <energy_score>  (437) 
-7.62338

>  <tags>  (437) 
[]

>  <HIPPO ID>  (437) 
153250

>  <name>  (437) 
LLINVKTVVFKUON-UHFFFAOYSA-N

$$$$
YVYVGHPVNHHVFQ-UHFFFAOYSA-N
     RDKit          3D

 14 14  0  0  0  0  0  0  0  0999 V2000
   13.6341   11.6165   20.6054 C   0  0  0  0  0  0  0  0  0  0  0  0
   12.5643   11.9882   21.6411 C   0  0  0  0  0  0  0  0  0  0  0  0
   11.7445   10.7728   22.0690 C   0  0  0  0  0  0  0  0  0  0  0  0
   11.8934    9.6604   21.5632 O   0  0  0  0  0  0  0  0  0  0  0  0
   10.6874   10.9249   23.0988 C   0  0  0  0  0  0  0  0  0  0  0  0
    9.9403    9.7917   23.4246 C   0  0  0  0  0  0  0  0  0  0  0  0
    8.8612    9.8986   24.2920 C   0  0  0  0  0  0  0  0  0  0  0  0
    8.5181   11.1199   24.8643 C   0  0  0  0  0  0  0  0  0  0  0  0
    7.4060   11.0738   25.6574 O   0  0  0  0  0  0  0  0  0  0  0  0
    6.9312   12.3151   26.1729 C   0  0  0  0  0  0  0  0  0  0  0  0
    5.6382   12.0945   26.9391 C   0  0  0  0  0  0  0  0  0  0  0  0
    4.5891   12.2663   26.0899 F   0  0  0  0  0  0  0  0  0  0  0  0
    9.2978   12.2413   24.5856 C   0  0  0  0  0  0  0  0  0  0  0  0
   10.3759   12.1483   23.6961 C   0  0  0  0  0  0  0  0  0  0  0  0
  1  2  1  0
  2  3  1  0
  3  4  2  0
  3  5  1  0
  5  6  2  0
  6  7  1  0
  7  8  2  0
  8  9  1  0
  9 10  1  0
 10 11  1  0
 11 12  1  0
  8 13  1  0
 13 14  2  0
 14  5  1  0
M  END
>  <distance_score>  (438) 
0.374552

>  <ref_pdb>  (438) 
A1775a

>  <ref_mols>  (438) 
A1775a

>  <alias>  (438) 
None

>  <original SMILES>  (438) 
CCC(=O)c1ccc(OCCF)cc1

>  <inchikey>  (438) 
YVYVGHPVNHHVFQ-UHFFFAOYSA-N

>  <exports>  (438) 
['/opt/xchem-fragalysis-2/maxwin/2A_HIPPO/hippo/A71EV2A_10_recipes/Recipe_1LPVPY0_poses.sdf']

>  <original ID>  (438) 
YVYVGHPVNHHVFQ-UHFFFAOYSA-N

>  <energy_score>  (438) 
-32.19508

>  <tags>  (438) 
[]

>  <HIPPO ID>  (438) 
153312

>  <name>  (438) 
YVYVGHPVNHHVFQ-UHFFFAOYSA-N

$$$$
ARVBKOZXQOCVGU-UHFFFAOYSA-N
     RDKit          3D

 14 14  0  0  0  0  0  0  0  0999 V2000
   11.8859    9.6704   21.5994 O   0  0  0  0  0  0  0  0  0  0  0  0
   11.7154   10.7814   22.1013 C   0  0  0  0  0  0  0  0  0  0  0  0
   12.4851   12.0266   21.7011 C   0  0  0  0  0  0  0  0  0  0  0  0
   13.7140   11.6031   20.4820 Cl  0  0  0  0  0  0  0  0  0  0  0  0
   10.6537   10.9138   23.1253 C   0  0  0  0  0  0  0  0  0  0  0  0
   10.3213   12.1337   23.7235 C   0  0  0  0  0  0  0  0  0  0  0  0
    9.2348   12.2110   24.6001 C   0  0  0  0  0  0  0  0  0  0  0  0
    8.4723   11.0778   24.8636 C   0  0  0  0  0  0  0  0  0  0  0  0
    7.3559   11.0116   25.6411 O   0  0  0  0  0  0  0  0  0  0  0  0
    6.7832   12.2423   26.0737 C   0  0  0  0  0  0  0  0  0  0  0  0
    5.5164   11.9303   26.8473 C   0  0  0  0  0  0  0  0  0  0  0  0
    5.8630   11.3691   28.0395 F   0  0  0  0  0  0  0  0  0  0  0  0
    8.8396    9.8610   24.2972 C   0  0  0  0  0  0  0  0  0  0  0  0
    9.9252    9.7682   23.4411 C   0  0  0  0  0  0  0  0  0  0  0  0
  1  2  2  0
  2  3  1  0
  3  4  1  0
  2  5  1  0
  5  6  2  0
  6  7  1  0
  7  8  2  0
  8  9  1  0
  9 10  1  0
 10 11  1  0
 11 12  1  0
  8 13  1  0
 13 14  2  0
 14  5  1  0
M  END
>  <distance_score>  (439) 
0.391119

>  <ref_pdb>  (439) 
A1775a

>  <ref_mols>  (439) 
A1775a

>  <alias>  (439) 
None

>  <original SMILES>  (439) 
O=C(CCl)c1ccc(OCCF)cc1

>  <inchikey>  (439) 
ARVBKOZXQOCVGU-UHFFFAOYSA-N

>  <exports>  (439) 
['/opt/xchem-fragalysis-2/maxwin/2A_HIPPO/hippo/A71EV2A_10_recipes/Recipe_1LPVPY0_poses.sdf']

>  <original ID>  (439) 
ARVBKOZXQOCVGU-UHFFFAOYSA-N

>  <energy_score>  (439) 
-8.063382

>  <tags>  (439) 
[]

>  <HIPPO ID>  (439) 
153338

>  <name>  (439) 
ARVBKOZXQOCVGU-UHFFFAOYSA-N

$$$$
QWQALFCYOHBVPY-UHFFFAOYSA-N
     RDKit          3D

 14 14  0  0  0  0  0  0  0  0999 V2000
   12.4173   12.1303   21.7768 C   0  0  0  0  0  0  0  0  0  0  0  0
   11.6452   10.8911   22.1711 C   0  0  0  0  0  0  0  0  0  0  0  0
   11.8511    9.7947   21.6532 O   0  0  0  0  0  0  0  0  0  0  0  0
   10.5856   11.0288   23.1971 C   0  0  0  0  0  0  0  0  0  0  0  0
    9.8173    9.9114   23.5235 C   0  0  0  0  0  0  0  0  0  0  0  0
    8.7782   10.0392   24.4386 C   0  0  0  0  0  0  0  0  0  0  0  0
    8.5297   11.2634   25.0551 C   0  0  0  0  0  0  0  0  0  0  0  0
    7.5277   11.3090   25.9936 O   0  0  0  0  0  0  0  0  0  0  0  0
    6.4246   12.1107   25.5549 C   0  0  0  0  0  0  0  0  0  0  0  0
    5.2296   11.8785   26.4570 C   0  0  0  0  0  0  0  0  0  0  0  0
    5.3774   12.9158   28.0992 Br  0  0  0  0  0  0  0  0  0  0  0  0
    9.3581   12.3642   24.8064 C   0  0  0  0  0  0  0  0  0  0  0  0
    9.1211   13.6117   25.4079 N   0  0  0  0  0  0  0  0  0  0  0  0
   10.3334   12.2571   23.8186 C   0  0  0  0  0  0  0  0  0  0  0  0
  1  2  1  0
  2  3  2  0
  2  4  1  0
  4  5  2  0
  5  6  1  0
  6  7  2  0
  7  8  1  0
  8  9  1  0
  9 10  1  0
 10 11  1  0
  7 12  1  0
 12 13  1  0
 12 14  2  0
 14  4  1  0
M  END
>  <distance_score>  (440) 
0.593913

>  <ref_pdb>  (440) 
A1775a

>  <ref_mols>  (440) 
A1775a

>  <alias>  (440) 
None

>  <original SMILES>  (440) 
CC(=O)c1ccc(OCCBr)c(N)c1

>  <inchikey>  (440) 
QWQALFCYOHBVPY-UHFFFAOYSA-N

>  <exports>  (440) 
['/opt/xchem-fragalysis-2/maxwin/2A_HIPPO/hippo/A71EV2A_10_recipes/Recipe_1LPVPY0_poses.sdf']

>  <original ID>  (440) 
QWQALFCYOHBVPY-UHFFFAOYSA-N

>  <energy_score>  (440) 
-24.342126

>  <tags>  (440) 
[]

>  <HIPPO ID>  (440) 
153361

>  <name>  (440) 
QWQALFCYOHBVPY-UHFFFAOYSA-N

$$$$
LCOVGPXTXTWUSS-UHFFFAOYSA-N
     RDKit          3D

 14 15  0  0  0  0  0  0  0  0999 V2000
   12.2067    9.9734   21.4026 O   0  0  0  0  0  0  0  0  0  0  0  0
   11.7868   10.9095   22.0599 C   0  0  0  0  0  0  0  0  0  0  0  0
   12.2245   12.3575   22.0133 C   0  0  0  0  0  0  0  0  0  0  0  0
   11.3268   13.0793   23.0120 C   0  0  0  0  0  0  0  0  0  0  0  0
   10.4227   12.0156   23.5507 C   0  0  0  0  0  0  0  0  0  0  0  0
    9.3780   12.1544   24.4515 C   0  0  0  0  0  0  0  0  0  0  0  0
    8.6295   11.0185   24.7738 C   0  0  0  0  0  0  0  0  0  0  0  0
    7.5615   10.9814   25.6265 O   0  0  0  0  0  0  0  0  0  0  0  0
    6.8811   12.2117   25.8384 C   0  0  0  0  0  0  0  0  0  0  0  0
    5.6170   11.9421   26.6296 C   0  0  0  0  0  0  0  0  0  0  0  0
    4.8437   13.0569   26.6181 F   0  0  0  0  0  0  0  0  0  0  0  0
    8.9619    9.7691   24.2213 C   0  0  0  0  0  0  0  0  0  0  0  0
   10.0197    9.6240   23.3365 C   0  0  0  0  0  0  0  0  0  0  0  0
   10.7132   10.7671   23.0181 C   0  0  0  0  0  0  0  0  0  0  0  0
  1  2  2  0
  2  3  1  0
  3  4  1  0
  4  5  1  0
  5  6  2  0
  6  7  1  0
  7  8  1  0
  8  9  1  0
  9 10  1  0
 10 11  1  0
  7 12  2  0
 12 13  1  0
 13 14  2  0
 14  2  1  0
 14  5  1  0
M  END
>  <distance_score>  (441) 
1.125568

>  <ref_pdb>  (441) 
A1775a

>  <ref_mols>  (441) 
A1775a

>  <alias>  (441) 
None

>  <original SMILES>  (441) 
O=C1CCc2cc(OCCF)ccc21

>  <inchikey>  (441) 
LCOVGPXTXTWUSS-UHFFFAOYSA-N

>  <exports>  (441) 
['/opt/xchem-fragalysis-2/maxwin/2A_HIPPO/hippo/A71EV2A_10_recipes/Recipe_1LPVPY0_poses.sdf']

>  <original ID>  (441) 
LCOVGPXTXTWUSS-UHFFFAOYSA-N

>  <energy_score>  (441) 
-11.331647

>  <tags>  (441) 
[]

>  <HIPPO ID>  (441) 
153395

>  <name>  (441) 
LCOVGPXTXTWUSS-UHFFFAOYSA-N

$$$$
GQHAVAKLVAASDI-UHFFFAOYSA-N
     RDKit          3D

 14 15  0  0  0  0  0  0  0  0999 V2000
   12.1795    9.9947   21.4300 O   0  0  0  0  0  0  0  0  0  0  0  0
   11.7626   10.9245   22.0985 C   0  0  0  0  0  0  0  0  0  0  0  0
   12.1980   12.3742   22.0621 C   0  0  0  0  0  0  0  0  0  0  0  0
   11.3457   13.0737   23.1155 C   0  0  0  0  0  0  0  0  0  0  0  0
   10.4079   12.0175   23.6104 C   0  0  0  0  0  0  0  0  0  0  0  0
    9.3472   12.1566   24.4945 C   0  0  0  0  0  0  0  0  0  0  0  0
    8.5713   11.0290   24.7774 C   0  0  0  0  0  0  0  0  0  0  0  0
    7.4538   10.9913   25.5634 O   0  0  0  0  0  0  0  0  0  0  0  0
    6.9097   12.2347   25.9955 C   0  0  0  0  0  0  0  0  0  0  0  0
    5.5621   11.9936   26.6512 C   0  0  0  0  0  0  0  0  0  0  0  0
    5.7668   11.0380   28.3362 Br  0  0  0  0  0  0  0  0  0  0  0  0
    8.9083    9.7824   24.2194 C   0  0  0  0  0  0  0  0  0  0  0  0
    9.9808    9.6359   23.3519 C   0  0  0  0  0  0  0  0  0  0  0  0
   10.6891   10.7755   23.0571 C   0  0  0  0  0  0  0  0  0  0  0  0
  1  2  2  0
  2  3  1  0
  3  4  1  0
  4  5  1  0
  5  6  2  0
  6  7  1  0
  7  8  1  0
  8  9  1  0
  9 10  1  0
 10 11  1  0
  7 12  2  0
 12 13  1  0
 13 14  2  0
 14  2  1  0
 14  5  1  0
M  END
>  <distance_score>  (442) 
1.139183

>  <ref_pdb>  (442) 
A1775a

>  <ref_mols>  (442) 
A1775a

>  <alias>  (442) 
None

>  <original SMILES>  (442) 
O=C1CCc2cc(OCCBr)ccc21

>  <inchikey>  (442) 
GQHAVAKLVAASDI-UHFFFAOYSA-N

>  <exports>  (442) 
['/opt/xchem-fragalysis-2/maxwin/2A_HIPPO/hippo/A71EV2A_10_recipes/Recipe_1LPVPY0_poses.sdf']

>  <original ID>  (442) 
GQHAVAKLVAASDI-UHFFFAOYSA-N

>  <energy_score>  (442) 
-16.700215

>  <tags>  (442) 
[]

>  <HIPPO ID>  (442) 
153396

>  <name>  (442) 
GQHAVAKLVAASDI-UHFFFAOYSA-N

$$$$
ATGKPXGZTZBPIB-UHFFFAOYSA-N
     RDKit          3D

 14 14  0  0  0  0  0  0  0  0999 V2000
   12.4742   12.1776   21.7487 C   0  0  0  0  0  0  0  0  0  0  0  0
   11.7436   10.9137   22.1168 C   0  0  0  0  0  0  0  0  0  0  0  0
   11.9733    9.8371   21.5689 O   0  0  0  0  0  0  0  0  0  0  0  0
   10.6829   10.9970   23.1399 C   0  0  0  0  0  0  0  0  0  0  0  0
   10.3557   12.1983   23.7833 C   0  0  0  0  0  0  0  0  0  0  0  0
    9.2749   12.2548   24.6654 C   0  0  0  0  0  0  0  0  0  0  0  0
    8.5102   11.1163   24.8877 C   0  0  0  0  0  0  0  0  0  0  0  0
    7.4068   11.0365   25.6871 O   0  0  0  0  0  0  0  0  0  0  0  0
    6.7597   12.2606   26.0243 C   0  0  0  0  0  0  0  0  0  0  0  0
    5.5226   11.9477   26.8458 C   0  0  0  0  0  0  0  0  0  0  0  0
    5.9139   11.6701   28.1226 F   0  0  0  0  0  0  0  0  0  0  0  0
    8.8831    9.9249   24.2637 C   0  0  0  0  0  0  0  0  0  0  0  0
    8.1463    8.8304   24.4464 F   0  0  0  0  0  0  0  0  0  0  0  0
    9.9595    9.8432   23.4061 C   0  0  0  0  0  0  0  0  0  0  0  0
  1  2  1  0
  2  3  2  0
  2  4  1  0
  4  5  2  0
  5  6  1  0
  6  7  2  0
  7  8  1  0
  8  9  1  0
  9 10  1  0
 10 11  1  0
  7 12  1  0
 12 13  1  0
 12 14  2  0
 14  4  1  0
M  END
>  <distance_score>  (443) 
0.481435

>  <ref_pdb>  (443) 
A1775a

>  <ref_mols>  (443) 
A1775a

>  <alias>  (443) 
None

>  <original SMILES>  (443) 
CC(=O)c1ccc(OCCF)c(F)c1

>  <inchikey>  (443) 
ATGKPXGZTZBPIB-UHFFFAOYSA-N

>  <exports>  (443) 
['/opt/xchem-fragalysis-2/maxwin/2A_HIPPO/hippo/A71EV2A_10_recipes/Recipe_1LPVPY0_poses.sdf']

>  <original ID>  (443) 
ATGKPXGZTZBPIB-UHFFFAOYSA-N

>  <energy_score>  (443) 
-32.59959

>  <tags>  (443) 
[]

>  <HIPPO ID>  (443) 
153407

>  <name>  (443) 
ATGKPXGZTZBPIB-UHFFFAOYSA-N

$$$$
VIJICCBUXCNQFM-UHFFFAOYSA-N
     RDKit          3D

 14 14  0  0  0  0  0  0  0  0999 V2000
   12.2337    9.8561   21.2959 O   0  0  0  0  0  0  0  0  0  0  0  0
   12.1221   10.9844   21.7607 C   0  0  0  0  0  0  0  0  0  0  0  0
   11.1306   11.2561   22.8012 C   0  0  0  0  0  0  0  0  0  0  0  0
   10.2830   10.2290   23.1496 C   0  0  0  0  0  0  0  0  0  0  0  0
    9.3178   10.4614   24.1086 C   0  0  0  0  0  0  0  0  0  0  0  0
    8.3349    9.1474   24.4281 Cl  0  0  0  0  0  0  0  0  0  0  0  0
    9.1731   11.6836   24.7629 C   0  0  0  0  0  0  0  0  0  0  0  0
    8.2915   11.8323   25.8110 O   0  0  0  0  0  0  0  0  0  0  0  0
    6.9333   12.0616   25.4074 C   0  0  0  0  0  0  0  0  0  0  0  0
    5.9614   11.5086   26.4387 C   0  0  0  0  0  0  0  0  0  0  0  0
    5.7217   12.7200   27.9444 Br  0  0  0  0  0  0  0  0  0  0  0  0
   10.0788   12.6898   24.4276 C   0  0  0  0  0  0  0  0  0  0  0  0
   10.1158   14.3399   25.3319 Br  0  0  0  0  0  0  0  0  0  0  0  0
   11.0391   12.4945   23.4267 C   0  0  0  0  0  0  0  0  0  0  0  0
  1  2  2  0
  2  3  1  0
  3  4  2  0
  4  5  1  0
  5  6  1  0
  5  7  2  0
  7  8  1  0
  8  9  1  0
  9 10  1  0
 10 11  1  0
  7 12  1  0
 12 13  1  0
 12 14  2  0
 14  3  1  0
M  END
>  <distance_score>  (444) 
0.81589

>  <ref_pdb>  (444) 
A1775a

>  <ref_mols>  (444) 
A1775a

>  <alias>  (444) 
None

>  <original SMILES>  (444) 
O=Cc1cc(Cl)c(OCCBr)c(Br)c1

>  <inchikey>  (444) 
VIJICCBUXCNQFM-UHFFFAOYSA-N

>  <exports>  (444) 
['/opt/xchem-fragalysis-2/maxwin/2A_HIPPO/hippo/A71EV2A_10_recipes/Recipe_1LPVPY0_poses.sdf']

>  <original ID>  (444) 
VIJICCBUXCNQFM-UHFFFAOYSA-N

>  <energy_score>  (444) 
-6.80809

>  <tags>  (444) 
[]

>  <HIPPO ID>  (444) 
153412

>  <name>  (444) 
VIJICCBUXCNQFM-UHFFFAOYSA-N

$$$$
PQQSNMCRSFPZML-UHFFFAOYSA-N
     RDKit          3D

 14 15  0  0  0  0  0  0  0  0999 V2000
    5.6406   12.0862   27.9990 O   0  0  0  0  0  0  0  0  0  0  0  0
    5.7370   11.8113   26.8068 C   0  0  0  0  0  0  0  0  0  0  0  0
    6.9270   12.1802   25.9652 C   0  0  0  0  0  0  0  0  0  0  0  0
    7.4538   10.9524   25.4940 O   0  0  0  0  0  0  0  0  0  0  0  0
    8.5685   11.0058   24.7070 C   0  0  0  0  0  0  0  0  0  0  0  0
    8.9544    9.7519   24.1986 C   0  0  0  0  0  0  0  0  0  0  0  0
   10.0410    9.6113   23.3492 C   0  0  0  0  0  0  0  0  0  0  0  0
   10.7062   10.7651   23.0133 C   0  0  0  0  0  0  0  0  0  0  0  0
   10.3629   12.0194   23.4995 C   0  0  0  0  0  0  0  0  0  0  0  0
    9.2915   12.1533   24.3704 C   0  0  0  0  0  0  0  0  0  0  0  0
   11.2203   13.0988   22.9155 C   0  0  0  0  0  0  0  0  0  0  0  0
   12.2079   12.3662   22.0139 C   0  0  0  0  0  0  0  0  0  0  0  0
   11.7867   10.9141   22.0643 C   0  0  0  0  0  0  0  0  0  0  0  0
   12.2212    9.9797   21.4143 O   0  0  0  0  0  0  0  0  0  0  0  0
  1  2  2  0
  2  3  1  0
  3  4  1  0
  4  5  1  0
  5  6  2  0
  6  7  1  0
  7  8  2  0
  8  9  1  0
  9 10  2  0
  9 11  1  0
 11 12  1  0
 12 13  1  0
 13 14  2  0
 10  5  1  0
 13  8  1  0
M  END
>  <distance_score>  (445) 
1.140271

>  <ref_pdb>  (445) 
A1775a

>  <ref_mols>  (445) 
A1775a

>  <alias>  (445) 
None

>  <original SMILES>  (445) 
O=CCOc1ccc2c(c1)CCC2=O

>  <inchikey>  (445) 
PQQSNMCRSFPZML-UHFFFAOYSA-N

>  <exports>  (445) 
['/opt/xchem-fragalysis-2/maxwin/2A_HIPPO/hippo/A71EV2A_10_recipes/Recipe_1LPVPY0_poses.sdf']

>  <original ID>  (445) 
PQQSNMCRSFPZML-UHFFFAOYSA-N

>  <energy_score>  (445) 
-12.481469

>  <tags>  (445) 
[]

>  <HIPPO ID>  (445) 
153596

>  <name>  (445) 
PQQSNMCRSFPZML-UHFFFAOYSA-N

$$$$
AIMAFLCFFWUUFG-UHFFFAOYSA-N
     RDKit          3D

 14 14  0  0  0  0  0  0  0  0999 V2000
    5.3495   12.8814   26.8222 O   0  0  0  0  0  0  0  0  0  0  0  0
    6.1761   12.0140   26.5597 C   0  0  0  0  0  0  0  0  0  0  0  0
    7.0534   12.0294   25.3299 C   0  0  0  0  0  0  0  0  0  0  0  0
    8.3929   11.7478   25.7243 O   0  0  0  0  0  0  0  0  0  0  0  0
    9.2800   11.7247   24.6739 C   0  0  0  0  0  0  0  0  0  0  0  0
   10.1084   12.8096   24.3912 C   0  0  0  0  0  0  0  0  0  0  0  0
    9.9884   14.2633   25.2903 Cl  0  0  0  0  0  0  0  0  0  0  0  0
   11.0927   12.7307   23.3946 C   0  0  0  0  0  0  0  0  0  0  0  0
   11.2811   11.5289   22.7189 C   0  0  0  0  0  0  0  0  0  0  0  0
   12.2954   11.3301   21.6819 C   0  0  0  0  0  0  0  0  0  0  0  0
   12.4869   10.2163   21.2033 O   0  0  0  0  0  0  0  0  0  0  0  0
   10.5072   10.4348   23.0142 C   0  0  0  0  0  0  0  0  0  0  0  0
    9.5224   10.5556   23.9683 C   0  0  0  0  0  0  0  0  0  0  0  0
    8.5873    9.0093   24.2096 Br  0  0  0  0  0  0  0  0  0  0  0  0
  1  2  2  0
  2  3  1  0
  3  4  1  0
  4  5  1  0
  5  6  2  0
  6  7  1  0
  6  8  1  0
  8  9  2  0
  9 10  1  0
 10 11  2  0
  9 12  1  0
 12 13  2  0
 13 14  1  0
 13  5  1  0
M  END
>  <distance_score>  (446) 
1.004831

>  <ref_pdb>  (446) 
A1775a

>  <ref_mols>  (446) 
A1775a

>  <alias>  (446) 
None

>  <original SMILES>  (446) 
O=CCOc1c(Cl)cc(C=O)cc1Br

>  <inchikey>  (446) 
AIMAFLCFFWUUFG-UHFFFAOYSA-N

>  <exports>  (446) 
['/opt/xchem-fragalysis-2/maxwin/2A_HIPPO/hippo/A71EV2A_10_recipes/Recipe_1LPVPY0_poses.sdf']

>  <original ID>  (446) 
AIMAFLCFFWUUFG-UHFFFAOYSA-N

>  <energy_score>  (446) 
-3.764278

>  <tags>  (446) 
[]

>  <HIPPO ID>  (446) 
153597

>  <name>  (446) 
AIMAFLCFFWUUFG-UHFFFAOYSA-N

$$$$
FQYYQADCSGSGLI-UHFFFAOYSA-N
     RDKit          3D

 14 14  0  0  0  0  0  0  0  0999 V2000
   12.4808   12.1690   21.7370 C   0  0  0  0  0  0  0  0  0  0  0  0
   11.7494   10.9063   22.1093 C   0  0  0  0  0  0  0  0  0  0  0  0
   11.9766    9.8276   21.5646 O   0  0  0  0  0  0  0  0  0  0  0  0
   10.6912   10.9916   23.1349 C   0  0  0  0  0  0  0  0  0  0  0  0
   10.3731   12.1932   23.7818 C   0  0  0  0  0  0  0  0  0  0  0  0
    9.2966   12.2535   24.6681 C   0  0  0  0  0  0  0  0  0  0  0  0
    8.5258   11.1180   24.8897 C   0  0  0  0  0  0  0  0  0  0  0  0
    7.4234   11.0478   25.6946 O   0  0  0  0  0  0  0  0  0  0  0  0
    6.7649   12.2754   25.9504 C   0  0  0  0  0  0  0  0  0  0  0  0
    5.5063   11.9745   26.7149 C   0  0  0  0  0  0  0  0  0  0  0  0
    5.0737   12.7081   27.5996 O   0  0  0  0  0  0  0  0  0  0  0  0
    8.8899    9.9254   24.2638 C   0  0  0  0  0  0  0  0  0  0  0  0
    8.1469    8.8358   24.4504 F   0  0  0  0  0  0  0  0  0  0  0  0
    9.9627    9.8403   23.4020 C   0  0  0  0  0  0  0  0  0  0  0  0
  1  2  1  0
  2  3  2  0
  2  4  1  0
  4  5  2  0
  5  6  1  0
  6  7  2  0
  7  8  1  0
  8  9  1  0
  9 10  1  0
 10 11  2  0
  7 12  1  0
 12 13  1  0
 12 14  2  0
 14  4  1  0
M  END
>  <distance_score>  (447) 
0.470572

>  <ref_pdb>  (447) 
A1775a

>  <ref_mols>  (447) 
A1775a

>  <alias>  (447) 
None

>  <original SMILES>  (447) 
CC(=O)c1ccc(OCC=O)c(F)c1

>  <inchikey>  (447) 
FQYYQADCSGSGLI-UHFFFAOYSA-N

>  <exports>  (447) 
['/opt/xchem-fragalysis-2/maxwin/2A_HIPPO/hippo/A71EV2A_10_recipes/Recipe_1LPVPY0_poses.sdf']

>  <original ID>  (447) 
FQYYQADCSGSGLI-UHFFFAOYSA-N

>  <energy_score>  (447) 
-8.192296

>  <tags>  (447) 
[]

>  <HIPPO ID>  (447) 
153617

>  <name>  (447) 
FQYYQADCSGSGLI-UHFFFAOYSA-N

$$$$
DXPUIBMQECWLJL-UHFFFAOYSA-N
     RDKit          3D

 14 14  0  0  0  0  0  0  0  0999 V2000
   12.4732   12.1825   21.7455 C   0  0  0  0  0  0  0  0  0  0  0  0
   11.7560   10.9135   22.1202 C   0  0  0  0  0  0  0  0  0  0  0  0
   11.9854    9.8396   21.5666 O   0  0  0  0  0  0  0  0  0  0  0  0
   10.7074   10.9882   23.1561 C   0  0  0  0  0  0  0  0  0  0  0  0
   10.3972   12.1798   23.8268 C   0  0  0  0  0  0  0  0  0  0  0  0
    9.3064   12.2369   24.6971 C   0  0  0  0  0  0  0  0  0  0  0  0
    8.5118   11.1116   24.8710 C   0  0  0  0  0  0  0  0  0  0  0  0
    7.3537   11.0416   25.5842 O   0  0  0  0  0  0  0  0  0  0  0  0
    6.8424   12.2259   26.1791 C   0  0  0  0  0  0  0  0  0  0  0  0
    5.3664   12.0541   26.5041 C   0  0  0  0  0  0  0  0  0  0  0  0
    5.0548   10.5774   27.4364 Cl  0  0  0  0  0  0  0  0  0  0  0  0
    8.8853    9.9216   24.2428 C   0  0  0  0  0  0  0  0  0  0  0  0
    8.1405    8.8296   24.4090 F   0  0  0  0  0  0  0  0  0  0  0  0
    9.9729    9.8377   23.4011 C   0  0  0  0  0  0  0  0  0  0  0  0
  1  2  1  0
  2  3  2  0
  2  4  1  0
  4  5  2  0
  5  6  1  0
  6  7  2  0
  7  8  1  0
  8  9  1  0
  9 10  1  0
 10 11  1  0
  7 12  1  0
 12 13  1  0
 12 14  2  0
 14  4  1  0
M  END
>  <distance_score>  (448) 
0.838277

>  <ref_pdb>  (448) 
A1775a

>  <ref_mols>  (448) 
A1775a

>  <alias>  (448) 
None

>  <original SMILES>  (448) 
CC(=O)c1ccc(OCCCl)c(F)c1

>  <inchikey>  (448) 
DXPUIBMQECWLJL-UHFFFAOYSA-N

>  <exports>  (448) 
['/opt/xchem-fragalysis-2/maxwin/2A_HIPPO/hippo/A71EV2A_10_recipes/Recipe_1LPVPY0_poses.sdf']

>  <original ID>  (448) 
DXPUIBMQECWLJL-UHFFFAOYSA-N

>  <energy_score>  (448) 
-2.336097

>  <tags>  (448) 
[]

>  <HIPPO ID>  (448) 
153645

>  <name>  (448) 
DXPUIBMQECWLJL-UHFFFAOYSA-N

$$$$
VILHJYWZPMKMMF-UHFFFAOYSA-N
     RDKit          3D

 14 14  0  0  0  0  0  0  0  0999 V2000
   13.6591   11.6202   20.5884 C   0  0  0  0  0  0  0  0  0  0  0  0
   12.5845   11.9900   21.6194 C   0  0  0  0  0  0  0  0  0  0  0  0
   11.7671   10.7727   22.0397 C   0  0  0  0  0  0  0  0  0  0  0  0
   11.9214    9.6616   21.5322 O   0  0  0  0  0  0  0  0  0  0  0  0
   10.7053   10.9157   23.0647 C   0  0  0  0  0  0  0  0  0  0  0  0
   10.3618   12.1375   23.6498 C   0  0  0  0  0  0  0  0  0  0  0  0
    9.2824   12.2110   24.5405 C   0  0  0  0  0  0  0  0  0  0  0  0
    8.5396   11.0698   24.8311 C   0  0  0  0  0  0  0  0  0  0  0  0
    7.4476   10.9873   25.6414 O   0  0  0  0  0  0  0  0  0  0  0  0
    6.8497   12.2027   26.0773 C   0  0  0  0  0  0  0  0  0  0  0  0
    5.6138   11.8329   26.8812 C   0  0  0  0  0  0  0  0  0  0  0  0
    4.8298   13.2711   27.5514 Cl  0  0  0  0  0  0  0  0  0  0  0  0
    8.9087    9.8537   24.2643 C   0  0  0  0  0  0  0  0  0  0  0  0
    9.9864    9.7670   23.3970 C   0  0  0  0  0  0  0  0  0  0  0  0
  1  2  1  0
  2  3  1  0
  3  4  2  0
  3  5  1  0
  5  6  2  0
  6  7  1  0
  7  8  2  0
  8  9  1  0
  9 10  1  0
 10 11  1  0
 11 12  1  0
  8 13  1  0
 13 14  2  0
 14  5  1  0
M  END
>  <distance_score>  (449) 
0.366939

>  <ref_pdb>  (449) 
A1775a

>  <ref_mols>  (449) 
A1775a

>  <alias>  (449) 
None

>  <original SMILES>  (449) 
CCC(=O)c1ccc(OCCCl)cc1

>  <inchikey>  (449) 
VILHJYWZPMKMMF-UHFFFAOYSA-N

>  <exports>  (449) 
['/opt/xchem-fragalysis-2/maxwin/2A_HIPPO/hippo/A71EV2A_10_recipes/Recipe_1LPVPY0_poses.sdf']

>  <original ID>  (449) 
VILHJYWZPMKMMF-UHFFFAOYSA-N

>  <energy_score>  (449) 
-22.349457

>  <tags>  (449) 
[]

>  <HIPPO ID>  (449) 
153653

>  <name>  (449) 
VILHJYWZPMKMMF-UHFFFAOYSA-N

$$$$
SIHATXQALYWPPN-UHFFFAOYSA-N
     RDKit          3D

 14 14  0  0  0  0  0  0  0  0999 V2000
   12.4509   12.1181   21.7481 C   0  0  0  0  0  0  0  0  0  0  0  0
   11.6843   10.8731   22.1342 C   0  0  0  0  0  0  0  0  0  0  0  0
   11.8980    9.7808   21.6113 O   0  0  0  0  0  0  0  0  0  0  0  0
   10.6188   10.9982   23.1538 C   0  0  0  0  0  0  0  0  0  0  0  0
    9.8735    9.8698   23.4870 C   0  0  0  0  0  0  0  0  0  0  0  0
    8.8175    9.9917   24.3816 C   0  0  0  0  0  0  0  0  0  0  0  0
    8.5189   11.2200   24.9727 C   0  0  0  0  0  0  0  0  0  0  0  0
    7.4467   11.2105   25.8284 O   0  0  0  0  0  0  0  0  0  0  0  0
    6.5331   12.2725   25.6101 C   0  0  0  0  0  0  0  0  0  0  0  0
    5.1620   12.0094   26.1819 C   0  0  0  0  0  0  0  0  0  0  0  0
    4.8313   11.0034   26.7982 O   0  0  0  0  0  0  0  0  0  0  0  0
    9.3326   12.3344   24.7218 C   0  0  0  0  0  0  0  0  0  0  0  0
    9.1055   13.5903   25.3158 N   0  0  0  0  0  0  0  0  0  0  0  0
   10.3339   12.2274   23.7571 C   0  0  0  0  0  0  0  0  0  0  0  0
  1  2  1  0
  2  3  2  0
  2  4  1  0
  4  5  2  0
  5  6  1  0
  6  7  2  0
  7  8  1  0
  8  9  1  0
  9 10  1  0
 10 11  2  0
  7 12  1  0
 12 13  1  0
 12 14  2  0
 14  4  1  0
M  END
>  <distance_score>  (450) 
0.874624

>  <ref_pdb>  (450) 
A1775a

>  <ref_mols>  (450) 
A1775a

>  <alias>  (450) 
None

>  <original SMILES>  (450) 
CC(=O)c1ccc(OCC=O)c(N)c1

>  <inchikey>  (450) 
SIHATXQALYWPPN-UHFFFAOYSA-N

>  <exports>  (450) 
['/opt/xchem-fragalysis-2/maxwin/2A_HIPPO/hippo/A71EV2A_10_recipes/Recipe_1LPVPY0_poses.sdf']

>  <original ID>  (450) 
SIHATXQALYWPPN-UHFFFAOYSA-N

>  <energy_score>  (450) 
-23.750074

>  <tags>  (450) 
[]

>  <HIPPO ID>  (450) 
153663

>  <name>  (450) 
SIHATXQALYWPPN-UHFFFAOYSA-N

$$$$
POTQPPCMLPYKEX-UHFFFAOYSA-N
     RDKit          3D

 14 14  0  0  0  0  0  0  0  0999 V2000
   12.4494   12.1285   21.7420 C   0  0  0  0  0  0  0  0  0  0  0  0
   11.6837   10.8853   22.1319 C   0  0  0  0  0  0  0  0  0  0  0  0
   11.8952    9.7920   21.6097 O   0  0  0  0  0  0  0  0  0  0  0  0
   10.6265   11.0122   23.1592 C   0  0  0  0  0  0  0  0  0  0  0  0
    9.8626    9.8890   23.4721 C   0  0  0  0  0  0  0  0  0  0  0  0
    8.8297   10.0036   24.3925 C   0  0  0  0  0  0  0  0  0  0  0  0
    8.5843   11.2191   25.0286 C   0  0  0  0  0  0  0  0  0  0  0  0
    7.5987   11.2249   25.9810 O   0  0  0  0  0  0  0  0  0  0  0  0
    6.5026   12.0719   25.6300 C   0  0  0  0  0  0  0  0  0  0  0  0
    5.4270   11.9105   26.6864 C   0  0  0  0  0  0  0  0  0  0  0  0
    4.1154   13.0689   26.4126 Cl  0  0  0  0  0  0  0  0  0  0  0  0
    9.4078   12.3276   24.7926 C   0  0  0  0  0  0  0  0  0  0  0  0
    9.1832   13.5673   25.4097 N   0  0  0  0  0  0  0  0  0  0  0  0
   10.3760   12.2328   23.7968 C   0  0  0  0  0  0  0  0  0  0  0  0
  1  2  1  0
  2  3  2  0
  2  4  1  0
  4  5  2  0
  5  6  1  0
  6  7  2  0
  7  8  1  0
  8  9  1  0
  9 10  1  0
 10 11  1  0
  7 12  1  0
 12 13  1  0
 12 14  2  0
 14  4  1  0
M  END
>  <distance_score>  (451) 
0.543754

>  <ref_pdb>  (451) 
A1775a

>  <ref_mols>  (451) 
A1775a

>  <alias>  (451) 
None

>  <original SMILES>  (451) 
CC(=O)c1ccc(OCCCl)c(N)c1

>  <inchikey>  (451) 
POTQPPCMLPYKEX-UHFFFAOYSA-N

>  <exports>  (451) 
['/opt/xchem-fragalysis-2/maxwin/2A_HIPPO/hippo/A71EV2A_10_recipes/Recipe_1LPVPY0_poses.sdf']

>  <original ID>  (451) 
POTQPPCMLPYKEX-UHFFFAOYSA-N

>  <energy_score>  (451) 
-22.380997

>  <tags>  (451) 
[]

>  <HIPPO ID>  (451) 
153676

>  <name>  (451) 
POTQPPCMLPYKEX-UHFFFAOYSA-N

$$$$
HPBLQBSGKQXYRP-UHFFFAOYSA-N
     RDKit          3D

 14 14  0  0  0  0  0  0  0  0999 V2000
   12.5344   10.2886   21.1853 O   0  0  0  0  0  0  0  0  0  0  0  0
   12.3025   11.3854   21.6843 C   0  0  0  0  0  0  0  0  0  0  0  0
   11.2834   11.5322   22.7244 C   0  0  0  0  0  0  0  0  0  0  0  0
   11.0473   12.7161   23.4189 C   0  0  0  0  0  0  0  0  0  0  0  0
   10.0611   12.7463   24.4199 C   0  0  0  0  0  0  0  0  0  0  0  0
    9.9181   14.1839   25.3406 Cl  0  0  0  0  0  0  0  0  0  0  0  0
    9.2804   11.6242   24.6862 C   0  0  0  0  0  0  0  0  0  0  0  0
    8.3794   11.5131   25.7163 O   0  0  0  0  0  0  0  0  0  0  0  0
    7.1444   12.2057   25.5229 C   0  0  0  0  0  0  0  0  0  0  0  0
    5.9860   11.4420   26.1610 C   0  0  0  0  0  0  0  0  0  0  0  0
    6.0657   11.4414   27.9406 Cl  0  0  0  0  0  0  0  0  0  0  0  0
    9.5668   10.4826   23.9532 C   0  0  0  0  0  0  0  0  0  0  0  0
    8.6359    8.9296   24.1420 Br  0  0  0  0  0  0  0  0  0  0  0  0
   10.5529   10.4065   22.9998 C   0  0  0  0  0  0  0  0  0  0  0  0
  1  2  2  0
  2  3  1  0
  3  4  2  0
  4  5  1  0
  5  6  1  0
  5  7  2  0
  7  8  1  0
  8  9  1  0
  9 10  1  0
 10 11  1  0
  7 12  1  0
 12 13  1  0
 12 14  2  0
 14  3  1  0
M  END
>  <distance_score>  (452) 
0.995178

>  <ref_pdb>  (452) 
A1775a

>  <ref_mols>  (452) 
A1775a

>  <alias>  (452) 
None

>  <original SMILES>  (452) 
O=Cc1cc(Cl)c(OCCCl)c(Br)c1

>  <inchikey>  (452) 
HPBLQBSGKQXYRP-UHFFFAOYSA-N

>  <exports>  (452) 
['/opt/xchem-fragalysis-2/maxwin/2A_HIPPO/hippo/A71EV2A_10_recipes/Recipe_1LPVPY0_poses.sdf']

>  <original ID>  (452) 
HPBLQBSGKQXYRP-UHFFFAOYSA-N

>  <energy_score>  (452) 
-4.712195

>  <tags>  (452) 
[]

>  <HIPPO ID>  (452) 
153685

>  <name>  (452) 
HPBLQBSGKQXYRP-UHFFFAOYSA-N

$$$$
PPUYXFRSZWNWAM-UHFFFAOYSA-N
     RDKit          3D

 14 15  0  0  0  0  0  0  0  0999 V2000
   12.1930    9.9949   21.4130 O   0  0  0  0  0  0  0  0  0  0  0  0
   11.7794   10.9197   22.0903 C   0  0  0  0  0  0  0  0  0  0  0  0
   12.2124   12.3700   22.0606 C   0  0  0  0  0  0  0  0  0  0  0  0
   11.3982   13.0509   23.1554 C   0  0  0  0  0  0  0  0  0  0  0  0
   10.4403   12.0008   23.6236 C   0  0  0  0  0  0  0  0  0  0  0  0
    9.3737   12.1389   24.4998 C   0  0  0  0  0  0  0  0  0  0  0  0
    8.5785   11.0175   24.7496 C   0  0  0  0  0  0  0  0  0  0  0  0
    7.4303   10.9846   25.4869 O   0  0  0  0  0  0  0  0  0  0  0  0
    6.9438   12.2065   26.0282 C   0  0  0  0  0  0  0  0  0  0  0  0
    5.5119   12.0287   26.5139 C   0  0  0  0  0  0  0  0  0  0  0  0
    5.3542   10.6697   27.6477 Cl  0  0  0  0  0  0  0  0  0  0  0  0
    8.9136    9.7724   24.1859 C   0  0  0  0  0  0  0  0  0  0  0  0
    9.9934    9.6260   23.3289 C   0  0  0  0  0  0  0  0  0  0  0  0
   10.7107   10.7641   23.0523 C   0  0  0  0  0  0  0  0  0  0  0  0
  1  2  2  0
  2  3  1  0
  3  4  1  0
  4  5  1  0
  5  6  2  0
  6  7  1  0
  7  8  1  0
  8  9  1  0
  9 10  1  0
 10 11  1  0
  7 12  2  0
 12 13  1  0
 13 14  2  0
 14  2  1  0
 14  5  1  0
M  END
>  <distance_score>  (453) 
1.131652

>  <ref_pdb>  (453) 
A1775a

>  <ref_mols>  (453) 
A1775a

>  <alias>  (453) 
None

>  <original SMILES>  (453) 
O=C1CCc2cc(OCCCl)ccc21

>  <inchikey>  (453) 
PPUYXFRSZWNWAM-UHFFFAOYSA-N

>  <exports>  (453) 
['/opt/xchem-fragalysis-2/maxwin/2A_HIPPO/hippo/A71EV2A_10_recipes/Recipe_1LPVPY0_poses.sdf']

>  <original ID>  (453) 
PPUYXFRSZWNWAM-UHFFFAOYSA-N

>  <energy_score>  (453) 
-9.248893

>  <tags>  (453) 
[]

>  <HIPPO ID>  (453) 
153686

>  <name>  (453) 
PPUYXFRSZWNWAM-UHFFFAOYSA-N

$$$$
KXEPKFAVJFJABZ-UHFFFAOYSA-N
     RDKit          3D

 14 14  0  0  0  0  0  0  0  0999 V2000
   12.5781   12.2306   21.6517 C   0  0  0  0  0  0  0  0  0  0  0  0
   11.8250   11.0080   22.0618 C   0  0  0  0  0  0  0  0  0  0  0  0
   12.0278    9.9104   21.5435 O   0  0  0  0  0  0  0  0  0  0  0  0
   10.7932   11.1596   23.1027 C   0  0  0  0  0  0  0  0  0  0  0  0
   10.4944   12.3658   23.7482 C   0  0  0  0  0  0  0  0  0  0  0  0
    9.4274   12.4368   24.6519 C   0  0  0  0  0  0  0  0  0  0  0  0
    8.6583   11.3051   24.8931 C   0  0  0  0  0  0  0  0  0  0  0  0
    7.5581   11.2100   25.7090 O   0  0  0  0  0  0  0  0  0  0  0  0
    6.9846   12.4288   26.1594 C   0  0  0  0  0  0  0  0  0  0  0  0
    5.6997   12.1472   26.9201 C   0  0  0  0  0  0  0  0  0  0  0  0
    4.6611   12.1310   26.0422 F   0  0  0  0  0  0  0  0  0  0  0  0
    9.0175   10.0980   24.2846 C   0  0  0  0  0  0  0  0  0  0  0  0
    8.1968    8.9908   24.3858 N   0  0  0  0  0  0  0  0  0  0  0  0
   10.0608   10.0261   23.3847 C   0  0  0  0  0  0  0  0  0  0  0  0
  1  2  1  0
  2  3  2  0
  2  4  1  0
  4  5  2  0
  5  6  1  0
  6  7  2  0
  7  8  1  0
  8  9  1  0
  9 10  1  0
 10 11  1  0
  7 12  1  0
 12 13  1  0
 12 14  2  0
 14  4  1  0
M  END
>  <distance_score>  (454) 
0.859302

>  <ref_pdb>  (454) 
A1775a

>  <ref_mols>  (454) 
A1775a

>  <alias>  (454) 
None

>  <original SMILES>  (454) 
CC(=O)c1ccc(OCCF)c(N)c1

>  <inchikey>  (454) 
KXEPKFAVJFJABZ-UHFFFAOYSA-N

>  <exports>  (454) 
['/opt/xchem-fragalysis-2/maxwin/2A_HIPPO/hippo/A71EV2A_10_recipes/Recipe_1LPVPY0_poses.sdf']

>  <original ID>  (454) 
KXEPKFAVJFJABZ-UHFFFAOYSA-N

>  <energy_score>  (454) 
-22.591262

>  <tags>  (454) 
[]

>  <HIPPO ID>  (454) 
153703

>  <name>  (454) 
KXEPKFAVJFJABZ-UHFFFAOYSA-N

$$$$
KKIXEWGIOYISMC-UHFFFAOYSA-N
     RDKit          3D

 14 14  0  0  0  0  0  0  0  0999 V2000
   13.6773   11.6242   20.5756 C   0  0  0  0  0  0  0  0  0  0  0  0
   12.6003   11.9934   21.6043 C   0  0  0  0  0  0  0  0  0  0  0  0
   11.7840   10.7757   22.0202 C   0  0  0  0  0  0  0  0  0  0  0  0
   11.9415    9.6663   21.5106 O   0  0  0  0  0  0  0  0  0  0  0  0
   10.7210   10.9136   23.0427 C   0  0  0  0  0  0  0  0  0  0  0  0
   10.3695   12.1329   23.6298 C   0  0  0  0  0  0  0  0  0  0  0  0
    9.2979   12.1952   24.5302 C   0  0  0  0  0  0  0  0  0  0  0  0
    8.5757   11.0435   24.8270 C   0  0  0  0  0  0  0  0  0  0  0  0
    7.5180   10.9400   25.6746 O   0  0  0  0  0  0  0  0  0  0  0  0
    6.8216   12.1261   26.0128 C   0  0  0  0  0  0  0  0  0  0  0  0
    5.7032   11.6300   26.8856 C   0  0  0  0  0  0  0  0  0  0  0  0
    4.5165   11.8576   26.6828 O   0  0  0  0  0  0  0  0  0  0  0  0
    8.9452    9.8325   24.2504 C   0  0  0  0  0  0  0  0  0  0  0  0
   10.0135    9.7579   23.3734 C   0  0  0  0  0  0  0  0  0  0  0  0
  1  2  1  0
  2  3  1  0
  3  4  2  0
  3  5  1  0
  5  6  2  0
  6  7  1  0
  7  8  2  0
  8  9  1  0
  9 10  1  0
 10 11  1  0
 11 12  2  0
  8 13  1  0
 13 14  2  0
 14  5  1  0
M  END
>  <distance_score>  (455) 
0.379826

>  <ref_pdb>  (455) 
A1775a

>  <ref_mols>  (455) 
A1775a

>  <alias>  (455) 
None

>  <original SMILES>  (455) 
CCC(=O)c1ccc(OCC=O)cc1

>  <inchikey>  (455) 
KKIXEWGIOYISMC-UHFFFAOYSA-N

>  <exports>  (455) 
['/opt/xchem-fragalysis-2/maxwin/2A_HIPPO/hippo/A71EV2A_10_recipes/Recipe_1LPVPY0_poses.sdf']

>  <original ID>  (455) 
KKIXEWGIOYISMC-UHFFFAOYSA-N

>  <energy_score>  (455) 
-13.038727

>  <tags>  (455) 
[]

>  <HIPPO ID>  (455) 
153753

>  <name>  (455) 
KKIXEWGIOYISMC-UHFFFAOYSA-N

$$$$
WPDWLXRMNQALMF-UHFFFAOYSA-N
     RDKit          3D

 14 14  0  0  0  0  0  0  0  0999 V2000
    5.5206   11.8814   28.1158 O   0  0  0  0  0  0  0  0  0  0  0  0
    5.5899   11.8099   26.8928 C   0  0  0  0  0  0  0  0  0  0  0  0
    6.8127   12.2013   26.1143 C   0  0  0  0  0  0  0  0  0  0  0  0
    7.3320   10.9896   25.5979 O   0  0  0  0  0  0  0  0  0  0  0  0
    8.4620   11.0626   24.8420 C   0  0  0  0  0  0  0  0  0  0  0  0
    9.2205   12.1998   24.5846 C   0  0  0  0  0  0  0  0  0  0  0  0
   10.3146   12.1271   23.7165 C   0  0  0  0  0  0  0  0  0  0  0  0
   10.6571   10.9087   23.1209 C   0  0  0  0  0  0  0  0  0  0  0  0
   11.7202   10.7806   22.0984 C   0  0  0  0  0  0  0  0  0  0  0  0
   11.8927    9.6704   21.5952 O   0  0  0  0  0  0  0  0  0  0  0  0
   12.4877   12.0272   21.6996 C   0  0  0  0  0  0  0  0  0  0  0  0
   13.7169   11.6050   20.4802 Cl  0  0  0  0  0  0  0  0  0  0  0  0
    9.9340    9.7591   23.4341 C   0  0  0  0  0  0  0  0  0  0  0  0
    8.8415    9.8469   24.2808 C   0  0  0  0  0  0  0  0  0  0  0  0
  1  2  2  0
  2  3  1  0
  3  4  1  0
  4  5  1  0
  5  6  2  0
  6  7  1  0
  7  8  2  0
  8  9  1  0
  9 10  2  0
  9 11  1  0
 11 12  1  0
  8 13  1  0
 13 14  2  0
 14  5  1  0
M  END
>  <distance_score>  (456) 
0.393966

>  <ref_pdb>  (456) 
A1775a

>  <ref_mols>  (456) 
A1775a

>  <alias>  (456) 
None

>  <original SMILES>  (456) 
O=CCOc1ccc(C(=O)CCl)cc1

>  <inchikey>  (456) 
WPDWLXRMNQALMF-UHFFFAOYSA-N

>  <exports>  (456) 
['/opt/xchem-fragalysis-2/maxwin/2A_HIPPO/hippo/A71EV2A_10_recipes/Recipe_1LPVPY0_poses.sdf']

>  <original ID>  (456) 
WPDWLXRMNQALMF-UHFFFAOYSA-N

>  <energy_score>  (456) 
-66.903234

>  <tags>  (456) 
[]

>  <HIPPO ID>  (456) 
153773

>  <name>  (456) 
WPDWLXRMNQALMF-UHFFFAOYSA-N

$$$$
IAUVXBJEUVGIEF-UHFFFAOYSA-N
     RDKit          3D

 14 14  0  0  0  0  0  0  0  0999 V2000
   13.6478   11.6202   20.5982 C   0  0  0  0  0  0  0  0  0  0  0  0
   12.5764   11.9920   21.6322 C   0  0  0  0  0  0  0  0  0  0  0  0
   11.7570   10.7761   22.0546 C   0  0  0  0  0  0  0  0  0  0  0  0
   11.9022    9.6671   21.5402 O   0  0  0  0  0  0  0  0  0  0  0  0
   10.6980   10.9216   23.0828 C   0  0  0  0  0  0  0  0  0  0  0  0
   10.3659   12.1438   23.6733 C   0  0  0  0  0  0  0  0  0  0  0  0
    9.2846   12.2247   24.5612 C   0  0  0  0  0  0  0  0  0  0  0  0
    8.5263   11.0904   24.8424 C   0  0  0  0  0  0  0  0  0  0  0  0
    7.4275   11.0219   25.6476 O   0  0  0  0  0  0  0  0  0  0  0  0
    6.7636   12.2462   25.9481 C   0  0  0  0  0  0  0  0  0  0  0  0
    5.5113   11.9728   26.6665 C   0  0  0  0  0  0  0  0  0  0  0  0
    4.5245   11.7746   27.2448 N   0  0  0  0  0  0  0  0  0  0  0  0
    8.8900    9.8714   24.2786 C   0  0  0  0  0  0  0  0  0  0  0  0
    9.9693    9.7781   23.4126 C   0  0  0  0  0  0  0  0  0  0  0  0
  1  2  1  0
  2  3  1  0
  3  4  2  0
  3  5  1  0
  5  6  2  0
  6  7  1  0
  7  8  2  0
  8  9  1  0
  9 10  1  0
 10 11  1  0
 11 12  3  0
  8 13  1  0
 13 14  2  0
 14  5  1  0
M  END
>  <distance_score>  (457) 
0.363946

>  <ref_pdb>  (457) 
A1775a

>  <ref_mols>  (457) 
A1775a

>  <alias>  (457) 
None

>  <original SMILES>  (457) 
CCC(=O)c1ccc(OCC#N)cc1

>  <inchikey>  (457) 
IAUVXBJEUVGIEF-UHFFFAOYSA-N

>  <exports>  (457) 
['/opt/xchem-fragalysis-2/maxwin/2A_HIPPO/hippo/A71EV2A_10_recipes/Recipe_1LPVPY0_poses.sdf']

>  <original ID>  (457) 
IAUVXBJEUVGIEF-UHFFFAOYSA-N

>  <energy_score>  (457) 
-34.443724

>  <tags>  (457) 
[]

>  <HIPPO ID>  (457) 
154736

>  <name>  (457) 
IAUVXBJEUVGIEF-UHFFFAOYSA-N

$$$$
BXQVDIAKTINJPF-UHFFFAOYSA-N
     RDKit          3D

 14 14  0  0  0  0  0  0  0  0999 V2000
    4.4643   11.7922   27.2827 N   0  0  0  0  0  0  0  0  0  0  0  0
    5.4538   11.9796   26.7056 C   0  0  0  0  0  0  0  0  0  0  0  0
    6.7098   12.2427   25.9918 C   0  0  0  0  0  0  0  0  0  0  0  0
    7.3617   11.0131   25.6844 O   0  0  0  0  0  0  0  0  0  0  0  0
    8.4658   11.0801   24.8870 C   0  0  0  0  0  0  0  0  0  0  0  0
    8.8277    9.8648   24.3138 C   0  0  0  0  0  0  0  0  0  0  0  0
    9.9087    9.7731   23.4506 C   0  0  0  0  0  0  0  0  0  0  0  0
   10.6403   10.9170   23.1352 C   0  0  0  0  0  0  0  0  0  0  0  0
   11.7032   10.7831   22.1115 C   0  0  0  0  0  0  0  0  0  0  0  0
   11.8745    9.6708   21.6130 O   0  0  0  0  0  0  0  0  0  0  0  0
   12.4745   12.0273   21.7099 C   0  0  0  0  0  0  0  0  0  0  0  0
   13.7027   11.6026   20.4903 Cl  0  0  0  0  0  0  0  0  0  0  0  0
   10.3120   12.1354   23.7389 C   0  0  0  0  0  0  0  0  0  0  0  0
    9.2302   12.2127   24.6227 C   0  0  0  0  0  0  0  0  0  0  0  0
  1  2  3  0
  2  3  1  0
  3  4  1  0
  4  5  1  0
  5  6  2  0
  6  7  1  0
  7  8  2  0
  8  9  1  0
  9 10  2  0
  9 11  1  0
 11 12  1  0
  8 13  1  0
 13 14  2  0
 14  5  1  0
M  END
>  <distance_score>  (458) 
0.396647

>  <ref_pdb>  (458) 
A1775a

>  <ref_mols>  (458) 
A1775a

>  <alias>  (458) 
None

>  <original SMILES>  (458) 
N#CCOc1ccc(C(=O)CCl)cc1

>  <inchikey>  (458) 
BXQVDIAKTINJPF-UHFFFAOYSA-N

>  <exports>  (458) 
['/opt/xchem-fragalysis-2/maxwin/2A_HIPPO/hippo/A71EV2A_10_recipes/Recipe_1LPVPY0_poses.sdf']

>  <original ID>  (458) 
BXQVDIAKTINJPF-UHFFFAOYSA-N

>  <energy_score>  (458) 
-11.168511

>  <tags>  (458) 
[]

>  <HIPPO ID>  (458) 
154757

>  <name>  (458) 
BXQVDIAKTINJPF-UHFFFAOYSA-N

$$$$
YZRYMCIUQSUION-UHFFFAOYSA-N
     RDKit          3D

 14 14  0  0  0  0  0  0  0  0999 V2000
   12.4245   12.1730   21.7994 C   0  0  0  0  0  0  0  0  0  0  0  0
   11.6973   10.9007   22.1566 C   0  0  0  0  0  0  0  0  0  0  0  0
   11.9383    9.8270   21.6079 O   0  0  0  0  0  0  0  0  0  0  0  0
   10.6254   10.9728   23.1717 C   0  0  0  0  0  0  0  0  0  0  0  0
    9.9137    9.8092   23.4573 C   0  0  0  0  0  0  0  0  0  0  0  0
    8.8200    9.8676   24.3117 C   0  0  0  0  0  0  0  0  0  0  0  0
    8.4282   11.0694   24.8995 C   0  0  0  0  0  0  0  0  0  0  0  0
    7.3070   10.9779   25.6737 O   0  0  0  0  0  0  0  0  0  0  0  0
    6.6960   12.2038   26.0789 C   0  0  0  0  0  0  0  0  0  0  0  0
    5.4214   11.9299   26.7542 C   0  0  0  0  0  0  0  0  0  0  0  0
    4.4171   11.7316   27.3013 N   0  0  0  0  0  0  0  0  0  0  0  0
    9.1857   12.2107   24.6498 C   0  0  0  0  0  0  0  0  0  0  0  0
    8.8816   13.3849   25.2193 F   0  0  0  0  0  0  0  0  0  0  0  0
   10.2745   12.1748   23.7890 C   0  0  0  0  0  0  0  0  0  0  0  0
  1  2  1  0
  2  3  2  0
  2  4  1  0
  4  5  2  0
  5  6  1  0
  6  7  2  0
  7  8  1  0
  8  9  1  0
  9 10  1  0
 10 11  3  0
  7 12  1  0
 12 13  1  0
 12 14  2  0
 14  4  1  0
M  END
>  <distance_score>  (459) 
0.502126

>  <ref_pdb>  (459) 
A1775a

>  <ref_mols>  (459) 
A1775a

>  <alias>  (459) 
None

>  <original SMILES>  (459) 
CC(=O)c1ccc(OCC#N)c(F)c1

>  <inchikey>  (459) 
YZRYMCIUQSUION-UHFFFAOYSA-N

>  <exports>  (459) 
['/opt/xchem-fragalysis-2/maxwin/2A_HIPPO/hippo/A71EV2A_10_recipes/Recipe_1LPVPY0_poses.sdf']

>  <original ID>  (459) 
YZRYMCIUQSUION-UHFFFAOYSA-N

>  <energy_score>  (459) 
-15.790151

>  <tags>  (459) 
[]

>  <HIPPO ID>  (459) 
154825

>  <name>  (459) 
YZRYMCIUQSUION-UHFFFAOYSA-N

$$$$
BSVAMGMIOLVIJD-UHFFFAOYSA-N
     RDKit          3D

 14 14  0  0  0  0  0  0  0  0999 V2000
   11.8773    9.6684   21.6080 O   0  0  0  0  0  0  0  0  0  0  0  0
   11.7076   10.7805   22.1076 C   0  0  0  0  0  0  0  0  0  0  0  0
   12.4792   12.0247   21.7056 C   0  0  0  0  0  0  0  0  0  0  0  0
   13.7077   11.6009   20.4864 Cl  0  0  0  0  0  0  0  0  0  0  0  0
   10.6465   10.9165   23.1323 C   0  0  0  0  0  0  0  0  0  0  0  0
   10.3233   12.1372   23.7331 C   0  0  0  0  0  0  0  0  0  0  0  0
    9.2420   12.2196   24.6155 C   0  0  0  0  0  0  0  0  0  0  0  0
    8.4735   11.0908   24.8837 C   0  0  0  0  0  0  0  0  0  0  0  0
    7.3648   11.0330   25.6754 O   0  0  0  0  0  0  0  0  0  0  0  0
    6.7826   12.2728   26.0662 C   0  0  0  0  0  0  0  0  0  0  0  0
    5.5017   12.0051   26.8419 C   0  0  0  0  0  0  0  0  0  0  0  0
    5.8652   11.3453   28.4584 Cl  0  0  0  0  0  0  0  0  0  0  0  0
    8.8302    9.8731   24.3125 C   0  0  0  0  0  0  0  0  0  0  0  0
    9.9111    9.7753   23.4496 C   0  0  0  0  0  0  0  0  0  0  0  0
  1  2  2  0
  2  3  1  0
  3  4  1  0
  2  5  1  0
  5  6  2  0
  6  7  1  0
  7  8  2  0
  8  9  1  0
  9 10  1  0
 10 11  1  0
 11 12  1  0
  8 13  1  0
 13 14  2  0
 14  5  1  0
M  END
>  <distance_score>  (460) 
0.393617

>  <ref_pdb>  (460) 
A1775a

>  <ref_mols>  (460) 
A1775a

>  <alias>  (460) 
None

>  <original SMILES>  (460) 
O=C(CCl)c1ccc(OCCCl)cc1

>  <inchikey>  (460) 
BSVAMGMIOLVIJD-UHFFFAOYSA-N

>  <exports>  (460) 
['/opt/xchem-fragalysis-2/maxwin/2A_HIPPO/hippo/A71EV2A_10_recipes/Recipe_1LPVPY0_poses.sdf']

>  <original ID>  (460) 
BSVAMGMIOLVIJD-UHFFFAOYSA-N

>  <energy_score>  (460) 
-7.763121

>  <tags>  (460) 
[]

>  <HIPPO ID>  (460) 
154881

>  <name>  (460) 
BSVAMGMIOLVIJD-UHFFFAOYSA-N

$$$$
MQYAEPIRWQPRAH-UHFFFAOYSA-N
     RDKit          3D

 14 14  0  0  0  0  0  0  0  0999 V2000
   12.5840   12.1895   21.6236 C   0  0  0  0  0  0  0  0  0  0  0  0
   11.7981   10.9992   22.0772 C   0  0  0  0  0  0  0  0  0  0  0  0
   11.9536    9.8830   21.5839 O   0  0  0  0  0  0  0  0  0  0  0  0
   10.7882   11.2119   23.1323 C   0  0  0  0  0  0  0  0  0  0  0  0
   10.6127   12.4275   23.8059 C   0  0  0  0  0  0  0  0  0  0  0  0
    9.6050   12.5572   24.7617 C   0  0  0  0  0  0  0  0  0  0  0  0
    8.7718   11.4761   25.0192 C   0  0  0  0  0  0  0  0  0  0  0  0
    7.8276   11.5598   26.0093 O   0  0  0  0  0  0  0  0  0  0  0  0
    6.5925   12.0887   25.5210 C   0  0  0  0  0  0  0  0  0  0  0  0
    5.5265   11.8581   26.5046 C   0  0  0  0  0  0  0  0  0  0  0  0
    4.6755   11.6703   27.2718 N   0  0  0  0  0  0  0  0  0  0  0  0
    8.9760   10.2532   24.3755 C   0  0  0  0  0  0  0  0  0  0  0  0
    8.0840    9.2072   24.4958 N   0  0  0  0  0  0  0  0  0  0  0  0
    9.9672   10.1343   23.4175 C   0  0  0  0  0  0  0  0  0  0  0  0
  1  2  1  0
  2  3  2  0
  2  4  1  0
  4  5  2  0
  5  6  1  0
  6  7  2  0
  7  8  1  0
  8  9  1  0
  9 10  1  0
 10 11  3  0
  7 12  1  0
 12 13  1  0
 12 14  2  0
 14  4  1  0
M  END
>  <distance_score>  (461) 
0.854256

>  <ref_pdb>  (461) 
A1775a

>  <ref_mols>  (461) 
A1775a

>  <alias>  (461) 
None

>  <original SMILES>  (461) 
CC(=O)c1ccc(OCC#N)c(N)c1

>  <inchikey>  (461) 
MQYAEPIRWQPRAH-UHFFFAOYSA-N

>  <exports>  (461) 
['/opt/xchem-fragalysis-2/maxwin/2A_HIPPO/hippo/A71EV2A_10_recipes/Recipe_1LPVPY0_poses.sdf']

>  <original ID>  (461) 
MQYAEPIRWQPRAH-UHFFFAOYSA-N

>  <energy_score>  (461) 
-18.251814

>  <tags>  (461) 
[]

>  <HIPPO ID>  (461) 
154905

>  <name>  (461) 
MQYAEPIRWQPRAH-UHFFFAOYSA-N

$$$$
JLHLVJUOFGCEEV-UHFFFAOYSA-N
     RDKit          3D

 14 15  0  0  0  0  0  0  0  0999 V2000
    4.6014   11.7823   27.2249 N   0  0  0  0  0  0  0  0  0  0  0  0
    5.5721   11.9635   26.6141 C   0  0  0  0  0  0  0  0  0  0  0  0
    6.8057   12.2175   25.8555 C   0  0  0  0  0  0  0  0  0  0  0  0
    7.4636   10.9852   25.5708 O   0  0  0  0  0  0  0  0  0  0  0  0
    8.5590   11.0319   24.7545 C   0  0  0  0  0  0  0  0  0  0  0  0
    8.9280    9.7777   24.2352 C   0  0  0  0  0  0  0  0  0  0  0  0
   10.0046    9.6312   23.3726 C   0  0  0  0  0  0  0  0  0  0  0  0
   10.6810   10.7788   23.0374 C   0  0  0  0  0  0  0  0  0  0  0  0
   10.3554   12.0330   23.5361 C   0  0  0  0  0  0  0  0  0  0  0  0
    9.2931   12.1730   24.4187 C   0  0  0  0  0  0  0  0  0  0  0  0
   11.2296   13.1054   22.9634 C   0  0  0  0  0  0  0  0  0  0  0  0
   12.1922   12.3714   22.0360 C   0  0  0  0  0  0  0  0  0  0  0  0
   11.7620   10.9211   22.0866 C   0  0  0  0  0  0  0  0  0  0  0  0
   12.1912    9.9839   21.4368 O   0  0  0  0  0  0  0  0  0  0  0  0
  1  2  3  0
  2  3  1  0
  3  4  1  0
  4  5  1  0
  5  6  2  0
  6  7  1  0
  7  8  2  0
  8  9  1  0
  9 10  2  0
  9 11  1  0
 11 12  1  0
 12 13  1  0
 13 14  2  0
 10  5  1  0
 13  8  1  0
M  END
>  <distance_score>  (462) 
1.145611

>  <ref_pdb>  (462) 
A1775a

>  <ref_mols>  (462) 
A1775a

>  <alias>  (462) 
None

>  <original SMILES>  (462) 
N#CCOc1ccc2c(c1)CCC2=O

>  <inchikey>  (462) 
JLHLVJUOFGCEEV-UHFFFAOYSA-N

>  <exports>  (462) 
['/opt/xchem-fragalysis-2/maxwin/2A_HIPPO/hippo/A71EV2A_10_recipes/Recipe_1LPVPY0_poses.sdf']

>  <original ID>  (462) 
JLHLVJUOFGCEEV-UHFFFAOYSA-N

>  <energy_score>  (462) 
-33.370069

>  <tags>  (462) 
[]

>  <HIPPO ID>  (462) 
155008

>  <name>  (462) 
JLHLVJUOFGCEEV-UHFFFAOYSA-N

$$$$
KEVNXRPRETYUJS-UHFFFAOYSA-N
     RDKit          3D

 14 14  0  0  0  0  0  0  0  0999 V2000
    5.2592   11.8513   27.2222 N   0  0  0  0  0  0  0  0  0  0  0  0
    6.0555   11.9497   26.3825 C   0  0  0  0  0  0  0  0  0  0  0  0
    7.0188   12.0499   25.2729 C   0  0  0  0  0  0  0  0  0  0  0  0
    8.3605   11.7859   25.7115 O   0  0  0  0  0  0  0  0  0  0  0  0
    9.2705   11.7423   24.6790 C   0  0  0  0  0  0  0  0  0  0  0  0
   10.1077   12.8208   24.3965 C   0  0  0  0  0  0  0  0  0  0  0  0
    9.9891   14.2801   25.2876 Cl  0  0  0  0  0  0  0  0  0  0  0  0
   11.0948   12.7336   23.4028 C   0  0  0  0  0  0  0  0  0  0  0  0
   11.2787   11.5293   22.7301 C   0  0  0  0  0  0  0  0  0  0  0  0
   12.2889   11.3248   21.6896 C   0  0  0  0  0  0  0  0  0  0  0  0
   12.4740   10.2097   21.2119 O   0  0  0  0  0  0  0  0  0  0  0  0
   10.5020   10.4389   23.0313 C   0  0  0  0  0  0  0  0  0  0  0  0
    9.5143   10.5674   23.9820 C   0  0  0  0  0  0  0  0  0  0  0  0
    8.5737    9.0245   24.2236 Br  0  0  0  0  0  0  0  0  0  0  0  0
  1  2  3  0
  2  3  1  0
  3  4  1  0
  4  5  1  0
  5  6  2  0
  6  7  1  0
  6  8  1  0
  8  9  2  0
  9 10  1  0
 10 11  2  0
  9 12  1  0
 12 13  2  0
 13 14  1  0
 13  5  1  0
M  END
>  <distance_score>  (463) 
1.003391

>  <ref_pdb>  (463) 
A1775a

>  <ref_mols>  (463) 
A1775a

>  <alias>  (463) 
None

>  <original SMILES>  (463) 
N#CCOc1c(Cl)cc(C=O)cc1Br

>  <inchikey>  (463) 
KEVNXRPRETYUJS-UHFFFAOYSA-N

>  <exports>  (463) 
['/opt/xchem-fragalysis-2/maxwin/2A_HIPPO/hippo/A71EV2A_10_recipes/Recipe_1LPVPY0_poses.sdf']

>  <original ID>  (463) 
KEVNXRPRETYUJS-UHFFFAOYSA-N

>  <energy_score>  (463) 
-3.359655

>  <tags>  (463) 
[]

>  <HIPPO ID>  (463) 
155057

>  <name>  (463) 
KEVNXRPRETYUJS-UHFFFAOYSA-N

$$$$
KDGNXNGAEPYBSK-UHFFFAOYSA-N
     RDKit          3D

 15 15  0  0  0  0  0  0  0  0999 V2000
    6.1053   12.0713   27.7107 C   0  0  0  0  0  0  0  0  0  0  0  0
    5.9832   12.3521   26.4064 C   0  0  0  0  0  0  0  0  0  0  0  0
    4.4303   13.2060   25.7990 Br  0  0  0  0  0  0  0  0  0  0  0  0
    6.9755   12.0723   25.3010 C   0  0  0  0  0  0  0  0  0  0  0  0
    8.2929   11.7761   25.7848 O   0  0  0  0  0  0  0  0  0  0  0  0
    9.2018   11.6357   24.7561 C   0  0  0  0  0  0  0  0  0  0  0  0
    9.3568   10.4210   24.0917 C   0  0  0  0  0  0  0  0  0  0  0  0
    8.3782    9.0979   24.3838 Cl  0  0  0  0  0  0  0  0  0  0  0  0
   10.3243   10.2080   23.1316 C   0  0  0  0  0  0  0  0  0  0  0  0
   11.1584   11.2484   22.7900 C   0  0  0  0  0  0  0  0  0  0  0  0
   12.1475   10.9974   21.7429 C   0  0  0  0  0  0  0  0  0  0  0  0
   12.2703    9.8737   21.2699 O   0  0  0  0  0  0  0  0  0  0  0  0
   11.0553   12.4805   23.4254 C   0  0  0  0  0  0  0  0  0  0  0  0
   10.0943   12.6571   24.4279 C   0  0  0  0  0  0  0  0  0  0  0  0
   10.1012   14.3090   25.3296 Br  0  0  0  0  0  0  0  0  0  0  0  0
  1  2  2  0
  2  3  1  0
  2  4  1  0
  4  5  1  0
  5  6  1  0
  6  7  2  0
  7  8  1  0
  7  9  1  0
  9 10  2  0
 10 11  1  0
 11 12  2  0
 10 13  1  0
 13 14  2  0
 14 15  1  0
 14  6  1  0
M  END
>  <distance_score>  (464) 
0.808805

>  <ref_pdb>  (464) 
A1775a

>  <ref_mols>  (464) 
A1775a

>  <alias>  (464) 
None

>  <original SMILES>  (464) 
C=C(Br)COc1c(Cl)cc(C=O)cc1Br

>  <inchikey>  (464) 
KDGNXNGAEPYBSK-UHFFFAOYSA-N

>  <exports>  (464) 
['/opt/xchem-fragalysis-2/maxwin/2A_HIPPO/hippo/A71EV2A_10_recipes/Recipe_1LPVPY0_poses.sdf']

>  <original ID>  (464) 
KDGNXNGAEPYBSK-UHFFFAOYSA-N

>  <energy_score>  (464) 
-4.717547

>  <tags>  (464) 
[]

>  <HIPPO ID>  (464) 
156311

>  <name>  (464) 
KDGNXNGAEPYBSK-UHFFFAOYSA-N

$$$$
SCUGCDQUMJNZEW-UHFFFAOYSA-N
     RDKit          3D

 15 15  0  0  0  0  0  0  0  0999 V2000
    7.1590   12.6692   27.4024 C   0  0  0  0  0  0  0  0  0  0  0  0
    7.3288   12.2813   26.1325 C   0  0  0  0  0  0  0  0  0  0  0  0
    6.2565   12.3053   25.0844 C   0  0  0  0  0  0  0  0  0  0  0  0
    4.5445   13.5087   25.4733 I   0  0  0  0  0  0  0  0  0  0  0  0
    8.4958   11.5712   25.8564 O   0  0  0  0  0  0  0  0  0  0  0  0
    9.2499   11.7186   24.7159 C   0  0  0  0  0  0  0  0  0  0  0  0
   10.0413   12.8282   24.4298 C   0  0  0  0  0  0  0  0  0  0  0  0
    9.9706   14.2544   25.3779 Cl  0  0  0  0  0  0  0  0  0  0  0  0
   11.0135   12.7775   23.4135 C   0  0  0  0  0  0  0  0  0  0  0  0
   11.2267   11.5859   22.7236 C   0  0  0  0  0  0  0  0  0  0  0  0
   12.2653   11.4012   21.7072 C   0  0  0  0  0  0  0  0  0  0  0  0
   12.4839   10.2922   21.2279 O   0  0  0  0  0  0  0  0  0  0  0  0
   10.4619   10.4821   22.9949 C   0  0  0  0  0  0  0  0  0  0  0  0
    9.4928   10.5743   23.9662 C   0  0  0  0  0  0  0  0  0  0  0  0
    8.5840    9.0103   24.2039 Br  0  0  0  0  0  0  0  0  0  0  0  0
  1  2  2  0
  2  3  1  0
  3  4  1  0
  2  5  1  0
  5  6  1  0
  6  7  2  0
  7  8  1  0
  7  9  1  0
  9 10  2  0
 10 11  1  0
 11 12  2  0
 10 13  1  0
 13 14  2  0
 14 15  1  0
 14  6  1  0
M  END
>  <distance_score>  (465) 
1.093857

>  <ref_pdb>  (465) 
A1775a

>  <ref_mols>  (465) 
A1775a

>  <alias>  (465) 
None

>  <original SMILES>  (465) 
C=C(CI)Oc1c(Cl)cc(C=O)cc1Br

>  <inchikey>  (465) 
SCUGCDQUMJNZEW-UHFFFAOYSA-N

>  <exports>  (465) 
['/opt/xchem-fragalysis-2/maxwin/2A_HIPPO/hippo/A71EV2A_10_recipes/Recipe_1LPVPY0_poses.sdf']

>  <original ID>  (465) 
SCUGCDQUMJNZEW-UHFFFAOYSA-N

>  <energy_score>  (465) 
-18.738863

>  <tags>  (465) 
[]

>  <HIPPO ID>  (465) 
156312

>  <name>  (465) 
SCUGCDQUMJNZEW-UHFFFAOYSA-N

$$$$
WBPLFSNMUNEPOM-UHFFFAOYSA-N
     RDKit          3D

 15 16  0  0  0  0  0  0  0  0999 V2000
    5.5655   11.3601   27.7665 C   0  0  0  0  0  0  0  0  0  0  0  0
    5.7098   12.1415   26.6881 C   0  0  0  0  0  0  0  0  0  0  0  0
    4.2849   13.1770   26.0717 Br  0  0  0  0  0  0  0  0  0  0  0  0
    6.9758   12.2918   25.8902 C   0  0  0  0  0  0  0  0  0  0  0  0
    7.5931   11.0254   25.6757 O   0  0  0  0  0  0  0  0  0  0  0  0
    8.6634   11.0349   24.8198 C   0  0  0  0  0  0  0  0  0  0  0  0
    8.9399    9.7899   24.2299 C   0  0  0  0  0  0  0  0  0  0  0  0
    9.9817    9.6305   23.3273 C   0  0  0  0  0  0  0  0  0  0  0  0
   10.7193   10.7536   23.0346 C   0  0  0  0  0  0  0  0  0  0  0  0
   10.4934   11.9934   23.6155 C   0  0  0  0  0  0  0  0  0  0  0  0
    9.4639   12.1465   24.5299 C   0  0  0  0  0  0  0  0  0  0  0  0
   11.4663   13.0241   23.1352 C   0  0  0  0  0  0  0  0  0  0  0  0
   12.2404   12.3302   22.0207 C   0  0  0  0  0  0  0  0  0  0  0  0
   11.7834   10.8869   22.0635 C   0  0  0  0  0  0  0  0  0  0  0  0
   12.1809    9.9502   21.3935 O   0  0  0  0  0  0  0  0  0  0  0  0
  1  2  2  0
  2  3  1  0
  2  4  1  0
  4  5  1  0
  5  6  1  0
  6  7  2  0
  7  8  1  0
  8  9  2  0
  9 10  1  0
 10 11  2  0
 10 12  1  0
 12 13  1  0
 13 14  1  0
 14 15  2  0
 11  6  1  0
 14  9  1  0
M  END
>  <distance_score>  (466) 
1.106777

>  <ref_pdb>  (466) 
A1775a

>  <ref_mols>  (466) 
A1775a

>  <alias>  (466) 
None

>  <original SMILES>  (466) 
C=C(Br)COc1ccc2c(c1)CCC2=O

>  <inchikey>  (466) 
WBPLFSNMUNEPOM-UHFFFAOYSA-N

>  <exports>  (466) 
['/opt/xchem-fragalysis-2/maxwin/2A_HIPPO/hippo/A71EV2A_10_recipes/Recipe_1LPVPY0_poses.sdf']

>  <original ID>  (466) 
WBPLFSNMUNEPOM-UHFFFAOYSA-N

>  <energy_score>  (466) 
-17.513803

>  <tags>  (466) 
[]

>  <HIPPO ID>  (466) 
156313

>  <name>  (466) 
WBPLFSNMUNEPOM-UHFFFAOYSA-N

$$$$
APUDIGAMSCIXOS-UHFFFAOYSA-N
     RDKit          3D

 15 16  0  0  0  0  0  0  0  0999 V2000
    7.7978   12.6838   26.8815 C   0  0  0  0  0  0  0  0  0  0  0  0
    6.8914   11.9831   26.1913 C   0  0  0  0  0  0  0  0  0  0  0  0
    5.4959   11.7901   26.7215 C   0  0  0  0  0  0  0  0  0  0  0  0
    4.2844   13.4103   26.0590 I   0  0  0  0  0  0  0  0  0  0  0  0
    7.1220   11.3463   24.9885 O   0  0  0  0  0  0  0  0  0  0  0  0
    8.3906   11.2340   24.4707 C   0  0  0  0  0  0  0  0  0  0  0  0
    8.8676    9.9292   24.2648 C   0  0  0  0  0  0  0  0  0  0  0  0
   10.0270    9.7030   23.5363 C   0  0  0  0  0  0  0  0  0  0  0  0
   10.6693   10.8158   23.0389 C   0  0  0  0  0  0  0  0  0  0  0  0
   10.2408   12.1201   23.2543 C   0  0  0  0  0  0  0  0  0  0  0  0
    9.0717   12.3423   23.9567 C   0  0  0  0  0  0  0  0  0  0  0  0
   11.0721   13.1211   22.5099 C   0  0  0  0  0  0  0  0  0  0  0  0
   12.2182   12.2942   21.9365 C   0  0  0  0  0  0  0  0  0  0  0  0
   11.7677   10.8595   22.0992 C   0  0  0  0  0  0  0  0  0  0  0  0
   12.1810    9.8702   21.5212 O   0  0  0  0  0  0  0  0  0  0  0  0
  1  2  2  0
  2  3  1  0
  3  4  1  0
  2  5  1  0
  5  6  1  0
  6  7  2  0
  7  8  1  0
  8  9  2  0
  9 10  1  0
 10 11  2  0
 10 12  1  0
 12 13  1  0
 13 14  1  0
 14 15  2  0
 11  6  1  0
 14  9  1  0
M  END
>  <distance_score>  (467) 
1.172921

>  <ref_pdb>  (467) 
A1775a

>  <ref_mols>  (467) 
A1775a

>  <alias>  (467) 
None

>  <original SMILES>  (467) 
C=C(CI)Oc1ccc2c(c1)CCC2=O

>  <inchikey>  (467) 
APUDIGAMSCIXOS-UHFFFAOYSA-N

>  <exports>  (467) 
['/opt/xchem-fragalysis-2/maxwin/2A_HIPPO/hippo/A71EV2A_10_recipes/Recipe_1LPVPY0_poses.sdf']

>  <original ID>  (467) 
APUDIGAMSCIXOS-UHFFFAOYSA-N

>  <energy_score>  (467) 
-5.377415

>  <tags>  (467) 
[]

>  <HIPPO ID>  (467) 
156314

>  <name>  (467) 
APUDIGAMSCIXOS-UHFFFAOYSA-N

$$$$
NURYHLLSBJYOSB-UHFFFAOYSA-N
     RDKit          3D

 15 15  0  0  0  0  0  0  0  0999 V2000
    5.3324   10.4592   26.9999 C   0  0  0  0  0  0  0  0  0  0  0  0
    5.5725   11.6742   26.4897 C   0  0  0  0  0  0  0  0  0  0  0  0
    4.2516   12.9758   26.6061 Br  0  0  0  0  0  0  0  0  0  0  0  0
    6.8235   12.1288   25.7837 C   0  0  0  0  0  0  0  0  0  0  0  0
    7.7844   11.0814   25.7934 O   0  0  0  0  0  0  0  0  0  0  0  0
    8.7789   11.1922   24.8627 C   0  0  0  0  0  0  0  0  0  0  0  0
    9.5322   12.3374   24.6482 C   0  0  0  0  0  0  0  0  0  0  0  0
   10.5620   12.2995   23.7058 C   0  0  0  0  0  0  0  0  0  0  0  0
   10.8448   11.1083   23.0207 C   0  0  0  0  0  0  0  0  0  0  0  0
   11.8846   10.9751   21.9888 C   0  0  0  0  0  0  0  0  0  0  0  0
   12.6347   12.2035   21.5977 C   0  0  0  0  0  0  0  0  0  0  0  0
   12.0893    9.8870   21.4527 O   0  0  0  0  0  0  0  0  0  0  0  0
   10.1070    9.9672   23.2626 C   0  0  0  0  0  0  0  0  0  0  0  0
    9.0527   10.0259   24.1419 C   0  0  0  0  0  0  0  0  0  0  0  0
    8.3260    8.8668   24.3462 N   0  0  0  0  0  0  0  0  0  0  0  0
  1  2  2  0
  2  3  1  0
  2  4  1  0
  4  5  1  0
  5  6  1  0
  6  7  2  0
  7  8  1  0
  8  9  2  0
  9 10  1  0
 10 11  1  0
 10 12  2  0
  9 13  1  0
 13 14  2  0
 14 15  1  0
 14  6  1  0
M  END
>  <distance_score>  (468) 
0.511655

>  <ref_pdb>  (468) 
A1775a

>  <ref_mols>  (468) 
A1775a

>  <alias>  (468) 
None

>  <original SMILES>  (468) 
C=C(Br)COc1ccc(C(C)=O)cc1N

>  <inchikey>  (468) 
NURYHLLSBJYOSB-UHFFFAOYSA-N

>  <exports>  (468) 
['/opt/xchem-fragalysis-2/maxwin/2A_HIPPO/hippo/A71EV2A_10_recipes/Recipe_1LPVPY0_poses.sdf']

>  <original ID>  (468) 
NURYHLLSBJYOSB-UHFFFAOYSA-N

>  <energy_score>  (468) 
-47.262968

>  <tags>  (468) 
[]

>  <HIPPO ID>  (468) 
156350

>  <name>  (468) 
NURYHLLSBJYOSB-UHFFFAOYSA-N

$$$$
PRFJKAFJDXKMLG-UHFFFAOYSA-N
     RDKit          3D

 15 15  0  0  0  0  0  0  0  0999 V2000
    6.4170   12.8573   24.7107 C   0  0  0  0  0  0  0  0  0  0  0  0
    6.6576   11.9899   25.7062 C   0  0  0  0  0  0  0  0  0  0  0  0
    5.5494   11.5606   26.6381 C   0  0  0  0  0  0  0  0  0  0  0  0
    5.9942   11.9500   28.6701 I   0  0  0  0  0  0  0  0  0  0  0  0
    7.8606   11.3329   25.9203 O   0  0  0  0  0  0  0  0  0  0  0  0
    8.8256   11.3149   24.9421 C   0  0  0  0  0  0  0  0  0  0  0  0
    9.6649   12.4070   24.7455 C   0  0  0  0  0  0  0  0  0  0  0  0
   10.6671   12.3276   23.7807 C   0  0  0  0  0  0  0  0  0  0  0  0
   10.8510   11.1384   23.0635 C   0  0  0  0  0  0  0  0  0  0  0  0
   11.8665   10.9659   22.0106 C   0  0  0  0  0  0  0  0  0  0  0  0
   12.6295   12.1765   21.5795 C   0  0  0  0  0  0  0  0  0  0  0  0
   12.0393    9.8635   21.4931 O   0  0  0  0  0  0  0  0  0  0  0  0
   10.0412   10.0421   23.3024 C   0  0  0  0  0  0  0  0  0  0  0  0
    9.0011   10.1418   24.2034 C   0  0  0  0  0  0  0  0  0  0  0  0
    8.2567    9.0005   24.4333 N   0  0  0  0  0  0  0  0  0  0  0  0
  1  2  2  0
  2  3  1  0
  3  4  1  0
  2  5  1  0
  5  6  1  0
  6  7  2  0
  7  8  1  0
  8  9  2  0
  9 10  1  0
 10 11  1  0
 10 12  2  0
  9 13  1  0
 13 14  2  0
 14 15  1  0
 14  6  1  0
M  END
>  <distance_score>  (469) 
0.869501

>  <ref_pdb>  (469) 
A1775a

>  <ref_mols>  (469) 
A1775a

>  <alias>  (469) 
None

>  <original SMILES>  (469) 
C=C(CI)Oc1ccc(C(C)=O)cc1N

>  <inchikey>  (469) 
PRFJKAFJDXKMLG-UHFFFAOYSA-N

>  <exports>  (469) 
['/opt/xchem-fragalysis-2/maxwin/2A_HIPPO/hippo/A71EV2A_10_recipes/Recipe_1LPVPY0_poses.sdf']

>  <original ID>  (469) 
PRFJKAFJDXKMLG-UHFFFAOYSA-N

>  <energy_score>  (469) 
-52.289581

>  <tags>  (469) 
[]

>  <HIPPO ID>  (469) 
156351

>  <name>  (469) 
PRFJKAFJDXKMLG-UHFFFAOYSA-N

$$$$
NKIMAFBIIQDSBW-UHFFFAOYSA-N
     RDKit          3D

 15 15  0  0  0  0  0  0  0  0999 V2000
    4.3943   12.9343   26.1810 C   0  0  0  0  0  0  0  0  0  0  0  0
    5.5585   12.5193   26.6935 C   0  0  0  0  0  0  0  0  0  0  0  0
    5.7144   12.2836   28.5329 Br  0  0  0  0  0  0  0  0  0  0  0  0
    6.8376   12.4823   25.9092 C   0  0  0  0  0  0  0  0  0  0  0  0
    7.3597   11.1725   25.7044 O   0  0  0  0  0  0  0  0  0  0  0  0
    8.4865   11.1521   24.9150 C   0  0  0  0  0  0  0  0  0  0  0  0
    8.7998    9.9215   24.3480 C   0  0  0  0  0  0  0  0  0  0  0  0
    9.8761    9.7894   23.4753 C   0  0  0  0  0  0  0  0  0  0  0  0
   10.6513   10.9046   23.1505 C   0  0  0  0  0  0  0  0  0  0  0  0
   11.7015   10.7571   22.1149 C   0  0  0  0  0  0  0  0  0  0  0  0
   11.8562    9.6436   21.6157 O   0  0  0  0  0  0  0  0  0  0  0  0
   12.4770   12.0006   21.7044 C   0  0  0  0  0  0  0  0  0  0  0  0
   13.7042   11.5836   20.4861 Cl  0  0  0  0  0  0  0  0  0  0  0  0
   10.3807   12.1304   23.7583 C   0  0  0  0  0  0  0  0  0  0  0  0
    9.3102   12.2477   24.6441 C   0  0  0  0  0  0  0  0  0  0  0  0
  1  2  2  0
  2  3  1  0
  2  4  1  0
  4  5  1  0
  5  6  1  0
  6  7  2  0
  7  8  1  0
  8  9  2  0
  9 10  1  0
 10 11  2  0
 10 12  1  0
 12 13  1  0
  9 14  1  0
 14 15  2  0
 15  6  1  0
M  END
>  <distance_score>  (470) 
0.410197

>  <ref_pdb>  (470) 
A1775a

>  <ref_mols>  (470) 
A1775a

>  <alias>  (470) 
None

>  <original SMILES>  (470) 
C=C(Br)COc1ccc(C(=O)CCl)cc1

>  <inchikey>  (470) 
NKIMAFBIIQDSBW-UHFFFAOYSA-N

>  <exports>  (470) 
['/opt/xchem-fragalysis-2/maxwin/2A_HIPPO/hippo/A71EV2A_10_recipes/Recipe_1LPVPY0_poses.sdf']

>  <original ID>  (470) 
NKIMAFBIIQDSBW-UHFFFAOYSA-N

>  <energy_score>  (470) 
-14.391857

>  <tags>  (470) 
[]

>  <HIPPO ID>  (470) 
156950

>  <name>  (470) 
NKIMAFBIIQDSBW-UHFFFAOYSA-N

$$$$
VLMBGEYNBGZYLX-UHFFFAOYSA-N
     RDKit          3D

 15 15  0  0  0  0  0  0  0  0999 V2000
    7.7704   12.7132   26.9096 C   0  0  0  0  0  0  0  0  0  0  0  0
    6.8546   11.9473   26.3027 C   0  0  0  0  0  0  0  0  0  0  0  0
    5.4544   11.7995   26.8454 C   0  0  0  0  0  0  0  0  0  0  0  0
    5.4551   11.0281   28.8376 I   0  0  0  0  0  0  0  0  0  0  0  0
    7.0753   11.2139   25.1499 O   0  0  0  0  0  0  0  0  0  0  0  0
    8.3064   11.1861   24.5464 C   0  0  0  0  0  0  0  0  0  0  0  0
    8.8990   12.3270   24.0133 C   0  0  0  0  0  0  0  0  0  0  0  0
   10.0801   12.2267   23.2866 C   0  0  0  0  0  0  0  0  0  0  0  0
   10.6275   10.9670   23.0301 C   0  0  0  0  0  0  0  0  0  0  0  0
   11.7374   10.7890   22.0691 C   0  0  0  0  0  0  0  0  0  0  0  0
   11.9236    9.6570   21.6248 O   0  0  0  0  0  0  0  0  0  0  0  0
   12.5276   12.0194   21.6599 C   0  0  0  0  0  0  0  0  0  0  0  0
   13.7687   11.5772   20.4671 Cl  0  0  0  0  0  0  0  0  0  0  0  0
   10.0290    9.8206   23.5599 C   0  0  0  0  0  0  0  0  0  0  0  0
    8.8657    9.9365   24.3086 C   0  0  0  0  0  0  0  0  0  0  0  0
  1  2  2  0
  2  3  1  0
  3  4  1  0
  2  5  1  0
  5  6  1  0
  6  7  2  0
  7  8  1  0
  8  9  2  0
  9 10  1  0
 10 11  2  0
 10 12  1  0
 12 13  1  0
  9 14  1  0
 14 15  2  0
 15  6  1  0
M  END
>  <distance_score>  (471) 
0.558778

>  <ref_pdb>  (471) 
A1775a

>  <ref_mols>  (471) 
A1775a

>  <alias>  (471) 
None

>  <original SMILES>  (471) 
C=C(CI)Oc1ccc(C(=O)CCl)cc1

>  <inchikey>  (471) 
VLMBGEYNBGZYLX-UHFFFAOYSA-N

>  <exports>  (471) 
['/opt/xchem-fragalysis-2/maxwin/2A_HIPPO/hippo/A71EV2A_10_recipes/Recipe_1LPVPY0_poses.sdf']

>  <original ID>  (471) 
VLMBGEYNBGZYLX-UHFFFAOYSA-N

>  <energy_score>  (471) 
-19.84808

>  <tags>  (471) 
[]

>  <HIPPO ID>  (471) 
156951

>  <name>  (471) 
VLMBGEYNBGZYLX-UHFFFAOYSA-N

$$$$
BRBGWKAAKFKEEZ-UHFFFAOYSA-N
     RDKit          3D

 15 15  0  0  0  0  0  0  0  0999 V2000
    5.0706   10.5793   27.1107 C   0  0  0  0  0  0  0  0  0  0  0  0
    5.5429   11.8197   26.9215 C   0  0  0  0  0  0  0  0  0  0  0  0
    4.6853   13.2743   27.7292 Br  0  0  0  0  0  0  0  0  0  0  0  0
    6.7681   12.1785   26.1189 C   0  0  0  0  0  0  0  0  0  0  0  0
    7.4147   10.9906   25.6778 O   0  0  0  0  0  0  0  0  0  0  0  0
    8.5099   11.1001   24.8777 C   0  0  0  0  0  0  0  0  0  0  0  0
    9.2555   12.2489   24.6547 C   0  0  0  0  0  0  0  0  0  0  0  0
   10.3376   12.2030   23.7723 C   0  0  0  0  0  0  0  0  0  0  0  0
   10.6812   11.0035   23.1309 C   0  0  0  0  0  0  0  0  0  0  0  0
   11.7469   10.9251   22.1131 C   0  0  0  0  0  0  0  0  0  0  0  0
   12.4755   12.1902   21.7508 C   0  0  0  0  0  0  0  0  0  0  0  0
   11.9843    9.8490   21.5673 O   0  0  0  0  0  0  0  0  0  0  0  0
    9.9705    9.8422   23.3944 C   0  0  0  0  0  0  0  0  0  0  0  0
    8.8941    9.9136   24.2501 C   0  0  0  0  0  0  0  0  0  0  0  0
    8.1687    8.8118   24.4355 F   0  0  0  0  0  0  0  0  0  0  0  0
  1  2  2  0
  2  3  1  0
  2  4  1  0
  4  5  1  0
  5  6  1  0
  6  7  2  0
  7  8  1  0
  8  9  2  0
  9 10  1  0
 10 11  1  0
 10 12  2  0
  9 13  1  0
 13 14  2  0
 14 15  1  0
 14  6  1  0
M  END
>  <distance_score>  (472) 
0.492785

>  <ref_pdb>  (472) 
A1775a

>  <ref_mols>  (472) 
A1775a

>  <alias>  (472) 
None

>  <original SMILES>  (472) 
C=C(Br)COc1ccc(C(C)=O)cc1F

>  <inchikey>  (472) 
BRBGWKAAKFKEEZ-UHFFFAOYSA-N

>  <exports>  (472) 
['/opt/xchem-fragalysis-2/maxwin/2A_HIPPO/hippo/A71EV2A_10_recipes/Recipe_1LPVPY0_poses.sdf']

>  <original ID>  (472) 
BRBGWKAAKFKEEZ-UHFFFAOYSA-N

>  <energy_score>  (472) 
-17.909128

>  <tags>  (472) 
[]

>  <HIPPO ID>  (472) 
157000

>  <name>  (472) 
BRBGWKAAKFKEEZ-UHFFFAOYSA-N

$$$$
FZYYTGVVUIPDIH-UHFFFAOYSA-N
     RDKit          3D

 15 15  0  0  0  0  0  0  0  0999 V2000
    6.3193   12.8747   24.8041 C   0  0  0  0  0  0  0  0  0  0  0  0
    6.5082   11.9616   25.7704 C   0  0  0  0  0  0  0  0  0  0  0  0
    5.3965   11.6217   26.7352 C   0  0  0  0  0  0  0  0  0  0  0  0
    5.9686   11.9324   28.7520 I   0  0  0  0  0  0  0  0  0  0  0  0
    7.6248   11.1548   25.9144 O   0  0  0  0  0  0  0  0  0  0  0  0
    8.6331   11.1674   24.9907 C   0  0  0  0  0  0  0  0  0  0  0  0
    9.4616   12.2691   24.8149 C   0  0  0  0  0  0  0  0  0  0  0  0
   10.4917   12.2006   23.8803 C   0  0  0  0  0  0  0  0  0  0  0  0
   10.7132   11.0151   23.1620 C   0  0  0  0  0  0  0  0  0  0  0  0
   11.7475   10.9138   22.1135 C   0  0  0  0  0  0  0  0  0  0  0  0
   12.4794   12.1691   21.7189 C   0  0  0  0  0  0  0  0  0  0  0  0
   11.9559    9.8299   21.5713 O   0  0  0  0  0  0  0  0  0  0  0  0
    9.9254    9.8922   23.3936 C   0  0  0  0  0  0  0  0  0  0  0  0
    8.8904    9.9881   24.2985 C   0  0  0  0  0  0  0  0  0  0  0  0
    8.1105    8.9240   24.4873 F   0  0  0  0  0  0  0  0  0  0  0  0
  1  2  2  0
  2  3  1  0
  3  4  1  0
  2  5  1  0
  5  6  1  0
  6  7  2  0
  7  8  1  0
  8  9  2  0
  9 10  1  0
 10 11  1  0
 10 12  2  0
  9 13  1  0
 13 14  2  0
 14 15  1  0
 14  6  1  0
M  END
>  <distance_score>  (473) 
0.538677

>  <ref_pdb>  (473) 
A1775a

>  <ref_mols>  (473) 
A1775a

>  <alias>  (473) 
None

>  <original SMILES>  (473) 
C=C(CI)Oc1ccc(C(C)=O)cc1F

>  <inchikey>  (473) 
FZYYTGVVUIPDIH-UHFFFAOYSA-N

>  <exports>  (473) 
['/opt/xchem-fragalysis-2/maxwin/2A_HIPPO/hippo/A71EV2A_10_recipes/Recipe_1LPVPY0_poses.sdf']

>  <original ID>  (473) 
FZYYTGVVUIPDIH-UHFFFAOYSA-N

>  <energy_score>  (473) 
-9.544727

>  <tags>  (473) 
[]

>  <HIPPO ID>  (473) 
157001

>  <name>  (473) 
FZYYTGVVUIPDIH-UHFFFAOYSA-N

$$$$
JOAPCGPLMHJWPM-UHFFFAOYSA-N
     RDKit          3D

 15 15  0  0  0  0  0  0  0  0999 V2000
    5.2407   10.5520   27.3242 C   0  0  0  0  0  0  0  0  0  0  0  0
    5.8885   11.7237   27.3101 C   0  0  0  0  0  0  0  0  0  0  0  0
    5.5994   12.9153   28.7176 Br  0  0  0  0  0  0  0  0  0  0  0  0
    6.9357   12.1446   26.3067 C   0  0  0  0  0  0  0  0  0  0  0  0
    7.3871   10.9962   25.5950 O   0  0  0  0  0  0  0  0  0  0  0  0
    8.5028   11.0840   24.8227 C   0  0  0  0  0  0  0  0  0  0  0  0
    9.2466   12.2246   24.5390 C   0  0  0  0  0  0  0  0  0  0  0  0
   10.3384   12.1490   23.6615 C   0  0  0  0  0  0  0  0  0  0  0  0
   10.6900   10.9263   23.0811 C   0  0  0  0  0  0  0  0  0  0  0  0
   11.7537   10.7816   22.0576 C   0  0  0  0  0  0  0  0  0  0  0  0
   11.9077    9.6712   21.5478 O   0  0  0  0  0  0  0  0  0  0  0  0
   12.5714   11.9979   21.6360 C   0  0  0  0  0  0  0  0  0  0  0  0
   13.6434   11.6250   20.6021 C   0  0  0  0  0  0  0  0  0  0  0  0
    9.9710    9.7776   23.4094 C   0  0  0  0  0  0  0  0  0  0  0  0
    8.8822    9.8672   24.2619 C   0  0  0  0  0  0  0  0  0  0  0  0
  1  2  2  0
  2  3  1  0
  2  4  1  0
  4  5  1  0
  5  6  1  0
  6  7  2  0
  7  8  1  0
  8  9  2  0
  9 10  1  0
 10 11  2  0
 10 12  1  0
 12 13  1  0
  9 14  1  0
 14 15  2  0
 15  6  1  0
M  END
>  <distance_score>  (474) 
0.43531

>  <ref_pdb>  (474) 
A1775a

>  <ref_mols>  (474) 
A1775a

>  <alias>  (474) 
None

>  <original SMILES>  (474) 
C=C(Br)COc1ccc(C(=O)CC)cc1

>  <inchikey>  (474) 
JOAPCGPLMHJWPM-UHFFFAOYSA-N

>  <exports>  (474) 
['/opt/xchem-fragalysis-2/maxwin/2A_HIPPO/hippo/A71EV2A_10_recipes/Recipe_1LPVPY0_poses.sdf']

>  <original ID>  (474) 
JOAPCGPLMHJWPM-UHFFFAOYSA-N

>  <energy_score>  (474) 
-38.978658

>  <tags>  (474) 
[]

>  <HIPPO ID>  (474) 
157020

>  <name>  (474) 
JOAPCGPLMHJWPM-UHFFFAOYSA-N

$$$$
UUUVWGOVAKXESA-UHFFFAOYSA-N
     RDKit          3D

 15 15  0  0  0  0  0  0  0  0999 V2000
    6.3465   12.8718   24.8033 C   0  0  0  0  0  0  0  0  0  0  0  0
    6.5627   11.9864   25.7880 C   0  0  0  0  0  0  0  0  0  0  0  0
    5.4733   11.6573   26.7804 C   0  0  0  0  0  0  0  0  0  0  0  0
    6.0294   12.1782   28.7611 I   0  0  0  0  0  0  0  0  0  0  0  0
    7.6975   11.2064   25.9362 O   0  0  0  0  0  0  0  0  0  0  0  0
    8.6720   11.1843   24.9751 C   0  0  0  0  0  0  0  0  0  0  0  0
    9.5088   12.2727   24.7378 C   0  0  0  0  0  0  0  0  0  0  0  0
   10.5223   12.1708   23.7828 C   0  0  0  0  0  0  0  0  0  0  0  0
   10.7226   10.9630   23.1054 C   0  0  0  0  0  0  0  0  0  0  0  0
   11.7583   10.7897   22.0569 C   0  0  0  0  0  0  0  0  0  0  0  0
   11.8850    9.6731   21.5541 O   0  0  0  0  0  0  0  0  0  0  0  0
   12.5887   11.9928   21.6168 C   0  0  0  0  0  0  0  0  0  0  0  0
   13.6528   11.6093   20.5819 C   0  0  0  0  0  0  0  0  0  0  0  0
    9.9113    9.8604   23.3944 C   0  0  0  0  0  0  0  0  0  0  0  0
    8.8848    9.9772   24.3202 C   0  0  0  0  0  0  0  0  0  0  0  0
  1  2  2  0
  2  3  1  0
  3  4  1  0
  2  5  1  0
  5  6  1  0
  6  7  2  0
  7  8  1  0
  8  9  2  0
  9 10  1  0
 10 11  2  0
 10 12  1  0
 12 13  1  0
  9 14  1  0
 14 15  2  0
 15  6  1  0
M  END
>  <distance_score>  (475) 
0.44323

>  <ref_pdb>  (475) 
A1775a

>  <ref_mols>  (475) 
A1775a

>  <alias>  (475) 
None

>  <original SMILES>  (475) 
C=C(CI)Oc1ccc(C(=O)CC)cc1

>  <inchikey>  (475) 
UUUVWGOVAKXESA-UHFFFAOYSA-N

>  <exports>  (475) 
['/opt/xchem-fragalysis-2/maxwin/2A_HIPPO/hippo/A71EV2A_10_recipes/Recipe_1LPVPY0_poses.sdf']

>  <original ID>  (475) 
UUUVWGOVAKXESA-UHFFFAOYSA-N

>  <energy_score>  (475) 
-7.587506

>  <tags>  (475) 
[]

>  <HIPPO ID>  (475) 
157021

>  <name>  (475) 
UUUVWGOVAKXESA-UHFFFAOYSA-N

$$$$
WECHHDJTILFYQT-UHFFFAOYSA-N
     RDKit          3D

 13 13  0  0  0  0  0  0  0  0999 V2000
    5.6240   11.8077   27.3948 C   0  0  0  0  0  0  0  0  0  0  0  0
    7.0272   11.9448   26.8635 C   0  0  0  0  0  0  0  0  0  0  0  0
    7.7689   12.8313   27.2785 O   0  0  0  0  0  0  0  0  0  0  0  0
    7.3572   10.9558   25.9581 N   0  0  0  0  0  0  0  0  0  0  0  0
    8.4935   10.9183   25.1333 C   0  0  0  0  0  0  0  0  0  0  0  0
    8.7287    9.7548   24.3966 C   0  0  0  0  0  0  0  0  0  0  0  0
    9.7960    9.6734   23.5005 C   0  0  0  0  0  0  0  0  0  0  0  0
   10.6225   10.7789   23.3124 C   0  0  0  0  0  0  0  0  0  0  0  0
   11.6708   10.7425   22.2636 C   0  0  0  0  0  0  0  0  0  0  0  0
   12.4073   12.0320   21.9441 C   0  0  0  0  0  0  0  0  0  0  0  0
   11.8771    9.6942   21.6536 O   0  0  0  0  0  0  0  0  0  0  0  0
   10.4028   11.9294   24.0656 C   0  0  0  0  0  0  0  0  0  0  0  0
    9.3513   11.9989   24.9761 C   0  0  0  0  0  0  0  0  0  0  0  0
  1  2  1  0
  2  3  2  0
  2  4  1  0
  4  5  1  0
  5  6  2  0
  6  7  1  0
  7  8  2  0
  8  9  1  0
  9 10  1  0
  9 11  2  0
  8 12  1  0
 12 13  2  0
 13  5  1  0
M  END
>  <distance_score>  (476) 
0.572387

>  <ref_pdb>  (476) 
A1776a

>  <ref_mols>  (476) 
A1776a

>  <alias>  (476) 
None

>  <original SMILES>  (476) 
CC(=O)Nc1ccc(C(C)=O)cc1

>  <inchikey>  (476) 
WECHHDJTILFYQT-UHFFFAOYSA-N

>  <exports>  (476) 
['/opt/xchem-fragalysis-2/maxwin/2A_HIPPO/hippo/A71EV2A_10_recipes/Recipe_1LPUPHX_poses.sdf', '/opt/xchem-fragalysis-2/maxwin/2A_HIPPO/hippo/A71EV2A_10_recipes/Recipe_1LPVPY0_poses.sdf']

>  <original ID>  (476) 
WECHHDJTILFYQT-UHFFFAOYSA-N

>  <energy_score>  (476) 
-13.116022

>  <tags>  (476) 
['Syndirella scaffold']

>  <HIPPO ID>  (476) 
158705

>  <name>  (476) 
WECHHDJTILFYQT-UHFFFAOYSA-N

$$$$
LOVVDWAISSOSRE-UHFFFAOYSA-N
     RDKit          3D

 14 14  0  0  0  0  0  0  0  0999 V2000
   12.4000   12.0232   21.9457 C   0  0  0  0  0  0  0  0  0  0  0  0
   11.6673   10.7323   22.2711 C   0  0  0  0  0  0  0  0  0  0  0  0
   11.8675    9.6848   21.6581 O   0  0  0  0  0  0  0  0  0  0  0  0
   10.6238   10.7707   23.3248 C   0  0  0  0  0  0  0  0  0  0  0  0
    9.7611    9.6887   23.4839 C   0  0  0  0  0  0  0  0  0  0  0  0
    8.6889    9.7871   24.3729 C   0  0  0  0  0  0  0  0  0  0  0  0
    8.4864   10.9424   25.1315 C   0  0  0  0  0  0  0  0  0  0  0  0
    7.3417   11.0076   25.9417 N   0  0  0  0  0  0  0  0  0  0  0  0
    7.0652   11.9623   26.9063 C   0  0  0  0  0  0  0  0  0  0  0  0
    7.8655   12.7761   27.3666 O   0  0  0  0  0  0  0  0  0  0  0  0
    5.6368   11.8300   27.4563 C   0  0  0  0  0  0  0  0  0  0  0  0
    5.3342   12.9165   28.4001 N   0  0  0  0  0  0  0  0  0  0  0  0
    9.3854   11.9931   25.0108 C   0  0  0  0  0  0  0  0  0  0  0  0
   10.4418   11.9071   24.1083 C   0  0  0  0  0  0  0  0  0  0  0  0
  1  2  1  0
  2  3  2  0
  2  4  1  0
  4  5  2  0
  5  6  1  0
  6  7  2  0
  7  8  1  0
  8  9  1  0
  9 10  2  0
  9 11  1  0
 11 12  1  0
  7 13  1  0
 13 14  2  0
 14  4  1  0
M  END
>  <distance_score>  (477) 
0.809501

>  <ref_pdb>  (477) 
A1776a

>  <ref_mols>  (477) 
A1776a

>  <alias>  (477) 
None

>  <original SMILES>  (477) 
CC(=O)c1ccc(NC(=O)CN)cc1

>  <inchikey>  (477) 
LOVVDWAISSOSRE-UHFFFAOYSA-N

>  <exports>  (477) 
['/opt/xchem-fragalysis-2/maxwin/2A_HIPPO/hippo/A71EV2A_10_recipes/Recipe_1LPUPHX_poses.sdf', '/opt/xchem-fragalysis-2/maxwin/2A_HIPPO/hippo/A71EV2A_10_recipes/Recipe_1LPVPY0_poses.sdf']

>  <original ID>  (477) 
LOVVDWAISSOSRE-UHFFFAOYSA-N

>  <energy_score>  (477) 
-7.932873

>  <tags>  (477) 
[]

>  <HIPPO ID>  (477) 
158717

>  <name>  (477) 
LOVVDWAISSOSRE-UHFFFAOYSA-N

$$$$
XUQMKUAJGHLWEP-UHFFFAOYSA-N
     RDKit          3D

 14 14  0  0  0  0  0  0  0  0999 V2000
    5.6423   11.9827   27.4588 C   0  0  0  0  0  0  0  0  0  0  0  0
    7.0225   12.1404   26.8780 C   0  0  0  0  0  0  0  0  0  0  0  0
    7.7678   13.0420   27.2498 O   0  0  0  0  0  0  0  0  0  0  0  0
    7.3418   11.1397   25.9860 N   0  0  0  0  0  0  0  0  0  0  0  0
    8.4544   11.1127   25.1335 C   0  0  0  0  0  0  0  0  0  0  0  0
    9.2133   12.2326   24.8264 C   0  0  0  0  0  0  0  0  0  0  0  0
   10.2568   12.1423   23.9004 C   0  0  0  0  0  0  0  0  0  0  0  0
   10.5996   10.9271   23.3012 C   0  0  0  0  0  0  0  0  0  0  0  0
   11.6809   10.8879   22.2678 C   0  0  0  0  0  0  0  0  0  0  0  0
   12.4371   12.1663   21.9768 C   0  0  0  0  0  0  0  0  0  0  0  0
   11.9367    9.8654   21.6354 O   0  0  0  0  0  0  0  0  0  0  0  0
    9.8582    9.8022   23.6560 C   0  0  0  0  0  0  0  0  0  0  0  0
   10.1922    8.2326   23.0902 Cl  0  0  0  0  0  0  0  0  0  0  0  0
    8.7715    9.9044   24.5296 C   0  0  0  0  0  0  0  0  0  0  0  0
  1  2  1  0
  2  3  2  0
  2  4  1  0
  4  5  1  0
  5  6  2  0
  6  7  1  0
  7  8  2  0
  8  9  1  0
  9 10  1  0
  9 11  2  0
  8 12  1  0
 12 13  1  0
 12 14  2  0
 14  5  1  0
M  END
>  <distance_score>  (478) 
0.658029

>  <ref_pdb>  (478) 
A1776a

>  <ref_mols>  (478) 
A1776a

>  <alias>  (478) 
None

>  <original SMILES>  (478) 
CC(=O)Nc1ccc(C(C)=O)c(Cl)c1

>  <inchikey>  (478) 
XUQMKUAJGHLWEP-UHFFFAOYSA-N

>  <exports>  (478) 
['/opt/xchem-fragalysis-2/maxwin/2A_HIPPO/hippo/A71EV2A_10_recipes/Recipe_1LPVPY0_poses.sdf']

>  <original ID>  (478) 
XUQMKUAJGHLWEP-UHFFFAOYSA-N

>  <energy_score>  (478) 
-12.880447

>  <tags>  (478) 
[]

>  <HIPPO ID>  (478) 
158725

>  <name>  (478) 
XUQMKUAJGHLWEP-UHFFFAOYSA-N

$$$$
ZLGXOIGFHQTJFD-UHFFFAOYSA-N
     RDKit          3D

 14 14  0  0  0  0  0  0  0  0999 V2000
   12.3962   12.0268   21.9486 C   0  0  0  0  0  0  0  0  0  0  0  0
   11.6711   10.7310   22.2703 C   0  0  0  0  0  0  0  0  0  0  0  0
   11.8755    9.6873   21.6522 O   0  0  0  0  0  0  0  0  0  0  0  0
   10.6311   10.7591   23.3275 C   0  0  0  0  0  0  0  0  0  0  0  0
   10.4495   11.8881   24.1222 C   0  0  0  0  0  0  0  0  0  0  0  0
    9.3940   11.9645   25.0271 C   0  0  0  0  0  0  0  0  0  0  0  0
    8.4968   10.9112   25.1381 C   0  0  0  0  0  0  0  0  0  0  0  0
    7.3537   10.9643   25.9455 N   0  0  0  0  0  0  0  0  0  0  0  0
    7.0155   11.9425   26.8617 C   0  0  0  0  0  0  0  0  0  0  0  0
    7.7368   12.8422   27.2824 O   0  0  0  0  0  0  0  0  0  0  0  0
    5.5766   11.7747   27.3524 C   0  0  0  0  0  0  0  0  0  0  0  0
    5.1385   10.4210   27.3320 O   0  0  0  0  0  0  0  0  0  0  0  0
    8.7024    9.7620   24.3719 C   0  0  0  0  0  0  0  0  0  0  0  0
    9.7720    9.6735   23.4796 C   0  0  0  0  0  0  0  0  0  0  0  0
  1  2  1  0
  2  3  2  0
  2  4  1  0
  4  5  2  0
  5  6  1  0
  6  7  2  0
  7  8  1  0
  8  9  1  0
  9 10  2  0
  9 11  1  0
 11 12  1  0
  7 13  1  0
 13 14  2  0
 14  4  1  0
M  END
>  <distance_score>  (479) 
0.904171

>  <ref_pdb>  (479) 
A1776a

>  <ref_mols>  (479) 
A1776a

>  <alias>  (479) 
None

>  <original SMILES>  (479) 
CC(=O)c1ccc(NC(=O)CO)cc1

>  <inchikey>  (479) 
ZLGXOIGFHQTJFD-UHFFFAOYSA-N

>  <exports>  (479) 
['/opt/xchem-fragalysis-2/maxwin/2A_HIPPO/hippo/A71EV2A_10_recipes/Recipe_1LPUPHX_poses.sdf', '/opt/xchem-fragalysis-2/maxwin/2A_HIPPO/hippo/A71EV2A_10_recipes/Recipe_1LPVPY0_poses.sdf']

>  <original ID>  (479) 
ZLGXOIGFHQTJFD-UHFFFAOYSA-N

>  <energy_score>  (479) 
-17.851709

>  <tags>  (479) 
[]

>  <HIPPO ID>  (479) 
158729

>  <name>  (479) 
ZLGXOIGFHQTJFD-UHFFFAOYSA-N

$$$$
FLMLTMFETZMOHW-UHFFFAOYSA-N
     RDKit          3D

 14 14  0  0  0  0  0  0  0  0999 V2000
   12.4196   12.0130   21.9239 C   0  0  0  0  0  0  0  0  0  0  0  0
   11.6891   10.7210   22.2538 C   0  0  0  0  0  0  0  0  0  0  0  0
   11.8837    9.6742   21.6380 O   0  0  0  0  0  0  0  0  0  0  0  0
   10.6533   10.7574   23.3143 C   0  0  0  0  0  0  0  0  0  0  0  0
    9.7912    9.6756   23.4814 C   0  0  0  0  0  0  0  0  0  0  0  0
    8.7198    9.7783   24.3714 C   0  0  0  0  0  0  0  0  0  0  0  0
    8.5160   10.9405   25.1188 C   0  0  0  0  0  0  0  0  0  0  0  0
    7.3513   11.0298   25.9004 N   0  0  0  0  0  0  0  0  0  0  0  0
    7.0376   12.0500   26.7907 C   0  0  0  0  0  0  0  0  0  0  0  0
    7.8502   12.8423   27.2618 O   0  0  0  0  0  0  0  0  0  0  0  0
    5.5543   12.0890   27.1141 C   0  0  0  0  0  0  0  0  0  0  0  0
    5.2604   12.8923   28.6673 Cl  0  0  0  0  0  0  0  0  0  0  0  0
    9.4203   11.9871   24.9949 C   0  0  0  0  0  0  0  0  0  0  0  0
   10.4769   11.8953   24.0950 C   0  0  0  0  0  0  0  0  0  0  0  0
  1  2  1  0
  2  3  2  0
  2  4  1  0
  4  5  2  0
  5  6  1  0
  6  7  2  0
  7  8  1  0
  8  9  1  0
  9 10  2  0
  9 11  1  0
 11 12  1  0
  7 13  1  0
 13 14  2  0
 14  4  1  0
M  END
>  <distance_score>  (480) 
0.546633

>  <ref_pdb>  (480) 
A1776a

>  <ref_mols>  (480) 
A1776a

>  <alias>  (480) 
None

>  <original SMILES>  (480) 
CC(=O)c1ccc(NC(=O)CCl)cc1

>  <inchikey>  (480) 
FLMLTMFETZMOHW-UHFFFAOYSA-N

>  <exports>  (480) 
['/opt/xchem-fragalysis-2/maxwin/2A_HIPPO/hippo/A71EV2A_10_recipes/Recipe_1LPUPHX_poses.sdf', '/opt/xchem-fragalysis-2/maxwin/2A_HIPPO/hippo/A71EV2A_10_recipes/Recipe_1LPVPY0_poses.sdf']

>  <original ID>  (480) 
FLMLTMFETZMOHW-UHFFFAOYSA-N

>  <energy_score>  (480) 
-7.869342

>  <tags>  (480) 
[]

>  <HIPPO ID>  (480) 
158733

>  <name>  (480) 
FLMLTMFETZMOHW-UHFFFAOYSA-N

$$$$
WBJOQROPHCHERE-UHFFFAOYSA-N
     RDKit          3D

 14 14  0  0  0  0  0  0  0  0999 V2000
   12.4184   12.0111   21.9237 C   0  0  0  0  0  0  0  0  0  0  0  0
   11.6885   10.7189   22.2547 C   0  0  0  0  0  0  0  0  0  0  0  0
   11.8824    9.6723   21.6386 O   0  0  0  0  0  0  0  0  0  0  0  0
   10.6543   10.7556   23.3168 C   0  0  0  0  0  0  0  0  0  0  0  0
   10.4825   11.8923   24.1000 C   0  0  0  0  0  0  0  0  0  0  0  0
    9.4266   11.9863   25.0003 C   0  0  0  0  0  0  0  0  0  0  0  0
    8.5186   10.9429   25.1228 C   0  0  0  0  0  0  0  0  0  0  0  0
    7.3536   11.0363   25.9032 N   0  0  0  0  0  0  0  0  0  0  0  0
    7.0374   12.0620   26.7858 C   0  0  0  0  0  0  0  0  0  0  0  0
    7.8484   12.8561   27.2563 O   0  0  0  0  0  0  0  0  0  0  0  0
    5.5462   12.1089   27.0913 C   0  0  0  0  0  0  0  0  0  0  0  0
    5.1902   12.8897   28.6862 S   0  0  0  0  0  0  0  0  0  0  0  0
    8.7186    9.7809   24.3740 C   0  0  0  0  0  0  0  0  0  0  0  0
    9.7890    9.6761   23.4829 C   0  0  0  0  0  0  0  0  0  0  0  0
  1  2  1  0
  2  3  2  0
  2  4  1  0
  4  5  2  0
  5  6  1  0
  6  7  2  0
  7  8  1  0
  8  9  1  0
  9 10  2  0
  9 11  1  0
 11 12  1  0
  7 13  1  0
 13 14  2  0
 14  4  1  0
M  END
>  <distance_score>  (481) 
0.547126

>  <ref_pdb>  (481) 
A1776a

>  <ref_mols>  (481) 
A1776a

>  <alias>  (481) 
None

>  <original SMILES>  (481) 
CC(=O)c1ccc(NC(=O)CS)cc1

>  <inchikey>  (481) 
WBJOQROPHCHERE-UHFFFAOYSA-N

>  <exports>  (481) 
['/opt/xchem-fragalysis-2/maxwin/2A_HIPPO/hippo/A71EV2A_10_recipes/Recipe_1LPUPHX_poses.sdf', '/opt/xchem-fragalysis-2/maxwin/2A_HIPPO/hippo/A71EV2A_10_recipes/Recipe_1LPVPY0_poses.sdf']

>  <original ID>  (481) 
WBJOQROPHCHERE-UHFFFAOYSA-N

>  <energy_score>  (481) 
-14.515333

>  <tags>  (481) 
[]

>  <HIPPO ID>  (481) 
158736

>  <name>  (481) 
WBJOQROPHCHERE-UHFFFAOYSA-N

$$$$
DMEWEZIFTMEFDJ-UHFFFAOYSA-N
     RDKit          3D

 15 15  0  0  0  0  0  0  0  0999 V2000
    4.7993   11.0331   27.1597 C   0  0  0  0  0  0  0  0  0  0  0  0
    5.8027   11.8127   27.5818 C   0  0  0  0  0  0  0  0  0  0  0  0
    5.5745   12.7371   29.0305 Cl  0  0  0  0  0  0  0  0  0  0  0  0
    7.1258   11.9836   26.8869 C   0  0  0  0  0  0  0  0  0  0  0  0
    7.8587   12.9236   27.1864 O   0  0  0  0  0  0  0  0  0  0  0  0
    7.4490   10.9714   26.0006 N   0  0  0  0  0  0  0  0  0  0  0  0
    8.5399   10.9539   25.1141 C   0  0  0  0  0  0  0  0  0  0  0  0
    8.8043    9.7673   24.4246 C   0  0  0  0  0  0  0  0  0  0  0  0
    9.8585    9.6877   23.5128 C   0  0  0  0  0  0  0  0  0  0  0  0
   10.6379   10.8149   23.2578 C   0  0  0  0  0  0  0  0  0  0  0  0
   11.6982   10.7575   22.2231 C   0  0  0  0  0  0  0  0  0  0  0  0
   12.4592   12.0329   21.9039 C   0  0  0  0  0  0  0  0  0  0  0  0
   11.9030    9.6990   21.6305 O   0  0  0  0  0  0  0  0  0  0  0  0
   10.3675   11.9991   23.9379 C   0  0  0  0  0  0  0  0  0  0  0  0
    9.3321   12.0677   24.8655 C   0  0  0  0  0  0  0  0  0  0  0  0
  1  2  2  0
  2  3  1  0
  2  4  1  0
  4  5  2  0
  4  6  1  0
  6  7  1  0
  7  8  2  0
  8  9  1  0
  9 10  2  0
 10 11  1  0
 11 12  1  0
 11 13  2  0
 10 14  1  0
 14 15  2  0
 15  7  1  0
M  END
>  <distance_score>  (482) 
0.888082

>  <ref_pdb>  (482) 
A1776a

>  <ref_mols>  (482) 
A1776a

>  <alias>  (482) 
None

>  <original SMILES>  (482) 
C=C(Cl)C(=O)Nc1ccc(C(C)=O)cc1

>  <inchikey>  (482) 
DMEWEZIFTMEFDJ-UHFFFAOYSA-N

>  <exports>  (482) 
['/opt/xchem-fragalysis-2/maxwin/2A_HIPPO/hippo/A71EV2A_10_recipes/Recipe_1LPUPHX_poses.sdf', '/opt/xchem-fragalysis-2/maxwin/2A_HIPPO/hippo/A71EV2A_10_recipes/Recipe_1LPVPY0_poses.sdf']

>  <original ID>  (482) 
DMEWEZIFTMEFDJ-UHFFFAOYSA-N

>  <energy_score>  (482) 
-13.893384

>  <tags>  (482) 
[]

>  <HIPPO ID>  (482) 
158794

>  <name>  (482) 
DMEWEZIFTMEFDJ-UHFFFAOYSA-N

$$$$
OUDPMDTVFKSWPQ-UHFFFAOYSA-N
     RDKit          3D

 15 15  0  0  0  0  0  0  0  0999 V2000
    5.8202   12.3576   27.3720 C   0  0  0  0  0  0  0  0  0  0  0  0
    7.1835   12.4415   26.7387 C   0  0  0  0  0  0  0  0  0  0  0  0
    8.1220   13.0072   27.2894 O   0  0  0  0  0  0  0  0  0  0  0  0
    7.2558   11.7380   25.5585 N   0  0  0  0  0  0  0  0  0  0  0  0
    8.4363   11.6207   24.7890 C   0  0  0  0  0  0  0  0  0  0  0  0
    8.8446   10.3555   24.3901 C   0  0  0  0  0  0  0  0  0  0  0  0
    7.8474    9.0668   24.7969 Cl  0  0  0  0  0  0  0  0  0  0  0  0
    9.9679   10.1226   23.6136 C   0  0  0  0  0  0  0  0  0  0  0  0
   10.6789   11.2139   23.1409 C   0  0  0  0  0  0  0  0  0  0  0  0
   11.7758   10.9601   22.1788 C   0  0  0  0  0  0  0  0  0  0  0  0
   12.6651   12.1177   21.7945 C   0  0  0  0  0  0  0  0  0  0  0  0
   11.9073    9.8343   21.6992 O   0  0  0  0  0  0  0  0  0  0  0  0
   10.2437   12.5068   23.4533 C   0  0  0  0  0  0  0  0  0  0  0  0
    9.1176   12.7032   24.2631 C   0  0  0  0  0  0  0  0  0  0  0  0
    8.3875   14.2618   24.2996 Cl  0  0  0  0  0  0  0  0  0  0  0  0
  1  2  1  0
  2  3  2  0
  2  4  1  0
  4  5  1  0
  5  6  2  0
  6  7  1  0
  6  8  1  0
  8  9  2  0
  9 10  1  0
 10 11  1  0
 10 12  2  0
  9 13  1  0
 13 14  2  0
 14 15  1  0
 14  5  1  0
M  END
>  <distance_score>  (483) 
0.983604

>  <ref_pdb>  (483) 
A1776a

>  <ref_mols>  (483) 
A1776a

>  <alias>  (483) 
None

>  <original SMILES>  (483) 
CC(=O)Nc1c(Cl)cc(C(C)=O)cc1Cl

>  <inchikey>  (483) 
OUDPMDTVFKSWPQ-UHFFFAOYSA-N

>  <exports>  (483) 
['/opt/xchem-fragalysis-2/maxwin/2A_HIPPO/hippo/A71EV2A_10_recipes/Recipe_1LPVPY0_poses.sdf']

>  <original ID>  (483) 
OUDPMDTVFKSWPQ-UHFFFAOYSA-N

>  <energy_score>  (483) 
-14.792124

>  <tags>  (483) 
[]

>  <HIPPO ID>  (483) 
158821

>  <name>  (483) 
OUDPMDTVFKSWPQ-UHFFFAOYSA-N

$$$$
ORZFTELEAXKDTN-UHFFFAOYSA-N
     RDKit          3D

 15 15  0  0  0  0  0  0  0  0999 V2000
    5.7704   10.4428   29.1303 C   0  0  0  0  0  0  0  0  0  0  0  0
    5.4286   11.7506   28.6923 O   0  0  0  0  0  0  0  0  0  0  0  0
    5.5816   11.9131   27.2888 C   0  0  0  0  0  0  0  0  0  0  0  0
    7.0402   11.9782   26.8181 C   0  0  0  0  0  0  0  0  0  0  0  0
    7.8264   12.8049   27.2770 O   0  0  0  0  0  0  0  0  0  0  0  0
    7.3562   10.9858   25.9044 N   0  0  0  0  0  0  0  0  0  0  0  0
    8.5118   10.9214   25.1096 C   0  0  0  0  0  0  0  0  0  0  0  0
    9.4035   11.9786   24.9872 C   0  0  0  0  0  0  0  0  0  0  0  0
   10.4610   11.8988   24.0864 C   0  0  0  0  0  0  0  0  0  0  0  0
   10.6506   10.7621   23.3060 C   0  0  0  0  0  0  0  0  0  0  0  0
   11.6916   10.7301   22.2508 C   0  0  0  0  0  0  0  0  0  0  0  0
   12.4206   12.0235   21.9264 C   0  0  0  0  0  0  0  0  0  0  0  0
   11.8939    9.6836   21.6368 O   0  0  0  0  0  0  0  0  0  0  0  0
    9.7980    9.6725   23.4692 C   0  0  0  0  0  0  0  0  0  0  0  0
    8.7258    9.7637   24.3581 C   0  0  0  0  0  0  0  0  0  0  0  0
  1  2  1  0
  2  3  1  0
  3  4  1  0
  4  5  2  0
  4  6  1  0
  6  7  1  0
  7  8  2  0
  8  9  1  0
  9 10  2  0
 10 11  1  0
 11 12  1  0
 11 13  2  0
 10 14  1  0
 14 15  2  0
 15  7  1  0
M  END
>  <distance_score>  (484) 
0.548855

>  <ref_pdb>  (484) 
A1776a

>  <ref_mols>  (484) 
A1776a

>  <alias>  (484) 
None

>  <original SMILES>  (484) 
COCC(=O)Nc1ccc(C(C)=O)cc1

>  <inchikey>  (484) 
ORZFTELEAXKDTN-UHFFFAOYSA-N

>  <exports>  (484) 
['/opt/xchem-fragalysis-2/maxwin/2A_HIPPO/hippo/A71EV2A_10_recipes/Recipe_1LPUPHX_poses.sdf', '/opt/xchem-fragalysis-2/maxwin/2A_HIPPO/hippo/A71EV2A_10_recipes/Recipe_1LPVPY0_poses.sdf']

>  <original ID>  (484) 
ORZFTELEAXKDTN-UHFFFAOYSA-N

>  <energy_score>  (484) 
-15.076046

>  <tags>  (484) 
[]

>  <HIPPO ID>  (484) 
158838

>  <name>  (484) 
ORZFTELEAXKDTN-UHFFFAOYSA-N

$$$$
JPKAUFWHDJRBLB-UHFFFAOYSA-N
     RDKit          3D

 15 15  0  0  0  0  0  0  0  0999 V2000
   12.2334   11.7727   21.9195 C   0  0  0  0  0  0  0  0  0  0  0  0
   11.5635   10.4581   22.3239 C   0  0  0  0  0  0  0  0  0  0  0  0
   11.7706    9.4095   21.7170 O   0  0  0  0  0  0  0  0  0  0  0  0
   10.5187   10.4768   23.3838 C   0  0  0  0  0  0  0  0  0  0  0  0
    9.4787    9.5593   23.3923 C   0  0  0  0  0  0  0  0  0  0  0  0
    8.4212    9.7233   24.3040 C   0  0  0  0  0  0  0  0  0  0  0  0
    8.3593   10.8090   25.1752 C   0  0  0  0  0  0  0  0  0  0  0  0
    7.2501   10.9751   26.0092 N   0  0  0  0  0  0  0  0  0  0  0  0
    7.0562   11.9603   26.9652 C   0  0  0  0  0  0  0  0  0  0  0  0
    7.8805   12.7792   27.3655 O   0  0  0  0  0  0  0  0  0  0  0  0
    5.6570   11.9250   27.5735 C   0  0  0  0  0  0  0  0  0  0  0  0
    4.7509   11.0790   26.7814 N   0  0  0  0  0  0  0  0  0  0  0  0
    9.4249   11.6692   25.2025 C   0  0  0  0  0  0  0  0  0  0  0  0
   10.5135   11.4293   24.3823 C   0  0  0  0  0  0  0  0  0  0  0  0
   11.9399   12.1243   24.9136 Cl  0  0  0  0  0  0  0  0  0  0  0  0
  1  2  1  0
  2  3  2  0
  2  4  1  0
  4  5  2  0
  5  6  1  0
  6  7  2  0
  7  8  1  0
  8  9  1  0
  9 10  2  0
  9 11  1  0
 11 12  1  0
  7 13  1  0
 13 14  2  0
 14 15  1  0
 14  4  1  0
M  END
>  <distance_score>  (485) 
0.638809

>  <ref_pdb>  (485) 
A1776a

>  <ref_mols>  (485) 
A1776a

>  <alias>  (485) 
None

>  <original SMILES>  (485) 
CC(=O)c1ccc(NC(=O)CN)cc1Cl

>  <inchikey>  (485) 
JPKAUFWHDJRBLB-UHFFFAOYSA-N

>  <exports>  (485) 
['/opt/xchem-fragalysis-2/maxwin/2A_HIPPO/hippo/A71EV2A_10_recipes/Recipe_1LPVPY0_poses.sdf']

>  <original ID>  (485) 
JPKAUFWHDJRBLB-UHFFFAOYSA-N

>  <energy_score>  (485) 
-16.285666

>  <tags>  (485) 
[]

>  <HIPPO ID>  (485) 
158853

>  <name>  (485) 
JPKAUFWHDJRBLB-UHFFFAOYSA-N

$$$$
RAZLEBYOIDBONO-UHFFFAOYSA-N
     RDKit          3D

 15 15  0  0  0  0  0  0  0  0999 V2000
   12.4465   12.1646   21.9707 C   0  0  0  0  0  0  0  0  0  0  0  0
   11.6884   10.8874   22.2623 C   0  0  0  0  0  0  0  0  0  0  0  0
   11.9403    9.8651   21.6283 O   0  0  0  0  0  0  0  0  0  0  0  0
   10.6069   10.9282   23.2951 C   0  0  0  0  0  0  0  0  0  0  0  0
   10.2673   12.1439   23.8947 C   0  0  0  0  0  0  0  0  0  0  0  0
    9.2198   12.2378   24.8153 C   0  0  0  0  0  0  0  0  0  0  0  0
    8.4586   11.1194   25.1207 C   0  0  0  0  0  0  0  0  0  0  0  0
    7.3415   11.1497   25.9632 N   0  0  0  0  0  0  0  0  0  0  0  0
    7.0106   12.1517   26.8545 C   0  0  0  0  0  0  0  0  0  0  0  0
    7.7525   13.0581   27.2254 O   0  0  0  0  0  0  0  0  0  0  0  0
    5.6129   11.9902   27.4187 C   0  0  0  0  0  0  0  0  0  0  0  0
    5.6228   10.7034   28.6978 S   0  0  0  0  0  0  0  0  0  0  0  0
    8.7751    9.9095   24.5209 C   0  0  0  0  0  0  0  0  0  0  0  0
    9.8597    9.8057   23.6458 C   0  0  0  0  0  0  0  0  0  0  0  0
   10.1715    8.2399   23.0601 Cl  0  0  0  0  0  0  0  0  0  0  0  0
  1  2  1  0
  2  3  2  0
  2  4  1  0
  4  5  2  0
  5  6  1  0
  6  7  2  0
  7  8  1  0
  8  9  1  0
  9 10  2  0
  9 11  1  0
 11 12  1  0
  7 13  1  0
 13 14  2  0
 14 15  1  0
 14  4  1  0
M  END
>  <distance_score>  (486) 
0.652724

>  <ref_pdb>  (486) 
A1776a

>  <ref_mols>  (486) 
A1776a

>  <alias>  (486) 
None

>  <original SMILES>  (486) 
CC(=O)c1ccc(NC(=O)CS)cc1Cl

>  <inchikey>  (486) 
RAZLEBYOIDBONO-UHFFFAOYSA-N

>  <exports>  (486) 
['/opt/xchem-fragalysis-2/maxwin/2A_HIPPO/hippo/A71EV2A_10_recipes/Recipe_1LPVPY0_poses.sdf']

>  <original ID>  (486) 
RAZLEBYOIDBONO-UHFFFAOYSA-N

>  <energy_score>  (486) 
-21.176805

>  <tags>  (486) 
[]

>  <HIPPO ID>  (486) 
158909

>  <name>  (486) 
RAZLEBYOIDBONO-UHFFFAOYSA-N

$$$$
AUSLZMDXWKAFSR-UHFFFAOYSA-N
     RDKit          3D

 15 15  0  0  0  0  0  0  0  0999 V2000
   12.4496   12.1643   21.9656 C   0  0  0  0  0  0  0  0  0  0  0  0
   11.6940   10.8862   22.2594 C   0  0  0  0  0  0  0  0  0  0  0  0
   11.9475    9.8633   21.6271 O   0  0  0  0  0  0  0  0  0  0  0  0
   10.6144   10.9255   23.2940 C   0  0  0  0  0  0  0  0  0  0  0  0
   10.2788   12.1397   23.8987 C   0  0  0  0  0  0  0  0  0  0  0  0
    9.2331   12.2327   24.8212 C   0  0  0  0  0  0  0  0  0  0  0  0
    8.4687   11.1153   25.1214 C   0  0  0  0  0  0  0  0  0  0  0  0
    7.3482   11.1454   25.9575 N   0  0  0  0  0  0  0  0  0  0  0  0
    7.0028   12.1418   26.8466 C   0  0  0  0  0  0  0  0  0  0  0  0
    7.7392   13.0581   27.2079 O   0  0  0  0  0  0  0  0  0  0  0  0
    5.5738   12.0490   27.3442 C   0  0  0  0  0  0  0  0  0  0  0  0
    5.1064   10.3607   27.6552 Cl  0  0  0  0  0  0  0  0  0  0  0  0
    8.7819    9.9067   24.5177 C   0  0  0  0  0  0  0  0  0  0  0  0
    9.8661    9.8034   23.6426 C   0  0  0  0  0  0  0  0  0  0  0  0
   10.1765    8.2379   23.0565 Cl  0  0  0  0  0  0  0  0  0  0  0  0
  1  2  1  0
  2  3  2  0
  2  4  1  0
  4  5  2  0
  5  6  1  0
  6  7  2  0
  7  8  1  0
  8  9  1  0
  9 10  2  0
  9 11  1  0
 11 12  1  0
  7 13  1  0
 13 14  2  0
 14 15  1  0
 14  4  1  0
M  END
>  <distance_score>  (487) 
0.953127

>  <ref_pdb>  (487) 
A1776a

>  <ref_mols>  (487) 
A1776a

>  <alias>  (487) 
None

>  <original SMILES>  (487) 
CC(=O)c1ccc(NC(=O)CCl)cc1Cl

>  <inchikey>  (487) 
AUSLZMDXWKAFSR-UHFFFAOYSA-N

>  <exports>  (487) 
['/opt/xchem-fragalysis-2/maxwin/2A_HIPPO/hippo/A71EV2A_10_recipes/Recipe_1LPVPY0_poses.sdf']

>  <original ID>  (487) 
AUSLZMDXWKAFSR-UHFFFAOYSA-N

>  <energy_score>  (487) 
-19.239082

>  <tags>  (487) 
[]

>  <HIPPO ID>  (487) 
158925

>  <name>  (487) 
AUSLZMDXWKAFSR-UHFFFAOYSA-N

$$$$
WPFBRJWFVGBZJI-UHFFFAOYSA-N
     RDKit          3D

 15 15  0  0  0  0  0  0  0  0999 V2000
   12.4420   12.0276   21.9072 C   0  0  0  0  0  0  0  0  0  0  0  0
   11.7135   10.7345   22.2333 C   0  0  0  0  0  0  0  0  0  0  0  0
   11.9166    9.6879   21.6199 O   0  0  0  0  0  0  0  0  0  0  0  0
   10.6747   10.7657   23.2902 C   0  0  0  0  0  0  0  0  0  0  0  0
   10.4827   11.9039   24.0686 C   0  0  0  0  0  0  0  0  0  0  0  0
    9.4267   11.9829   24.9710 C   0  0  0  0  0  0  0  0  0  0  0  0
    8.5394   10.9227   25.0940 C   0  0  0  0  0  0  0  0  0  0  0  0
    7.3757   10.9875   25.8767 N   0  0  0  0  0  0  0  0  0  0  0  0
    7.0526   11.9694   26.7975 C   0  0  0  0  0  0  0  0  0  0  0  0
    7.8428   12.7880   27.2699 O   0  0  0  0  0  0  0  0  0  0  0  0
    5.5925   12.0276   27.1851 C   0  0  0  0  0  0  0  0  0  0  0  0
    5.0285   10.7025   27.4181 C   0  0  0  0  0  0  0  0  0  0  0  0
    4.5822    9.6411   27.5554 N   0  0  0  0  0  0  0  0  0  0  0  0
    8.7562    9.7629   24.3457 C   0  0  0  0  0  0  0  0  0  0  0  0
    9.8272    9.6731   23.4567 C   0  0  0  0  0  0  0  0  0  0  0  0
  1  2  1  0
  2  3  2  0
  2  4  1  0
  4  5  2  0
  5  6  1  0
  6  7  2  0
  7  8  1  0
  8  9  1  0
  9 10  2  0
  9 11  1  0
 11 12  1  0
 12 13  3  0
  7 14  1  0
 14 15  2  0
 15  4  1  0
M  END
>  <distance_score>  (488) 
0.876049

>  <ref_pdb>  (488) 
A1776a

>  <ref_mols>  (488) 
A1776a

>  <alias>  (488) 
None

>  <original SMILES>  (488) 
CC(=O)c1ccc(NC(=O)CC#N)cc1

>  <inchikey>  (488) 
WPFBRJWFVGBZJI-UHFFFAOYSA-N

>  <exports>  (488) 
['/opt/xchem-fragalysis-2/maxwin/2A_HIPPO/hippo/A71EV2A_10_recipes/Recipe_1LPUPHX_poses.sdf', '/opt/xchem-fragalysis-2/maxwin/2A_HIPPO/hippo/A71EV2A_10_recipes/Recipe_1LPVPY0_poses.sdf']

>  <original ID>  (488) 
WPFBRJWFVGBZJI-UHFFFAOYSA-N

>  <energy_score>  (488) 
-12.998034

>  <tags>  (488) 
[]

>  <HIPPO ID>  (488) 
158983

>  <name>  (488) 
WPFBRJWFVGBZJI-UHFFFAOYSA-N

$$$$
QJLXASMDOHNPOL-UHFFFAOYSA-N
     RDKit          3D

 15 15  0  0  0  0  0  0  0  0999 V2000
   12.4413   12.0694   21.9190 C   0  0  0  0  0  0  0  0  0  0  0  0
   11.7362   10.7609   22.2193 C   0  0  0  0  0  0  0  0  0  0  0  0
   11.9673    9.7252   21.5967 O   0  0  0  0  0  0  0  0  0  0  0  0
   10.6859   10.7560   23.2628 C   0  0  0  0  0  0  0  0  0  0  0  0
   10.4728   11.8599   24.0867 C   0  0  0  0  0  0  0  0  0  0  0  0
    9.4028   11.8892   24.9782 C   0  0  0  0  0  0  0  0  0  0  0  0
    8.5258   10.8149   25.0344 C   0  0  0  0  0  0  0  0  0  0  0  0
    7.3743   10.8004   25.8258 N   0  0  0  0  0  0  0  0  0  0  0  0
    7.0383   11.6798   26.8343 C   0  0  0  0  0  0  0  0  0  0  0  0
    7.7107   12.5864   27.3017 O   0  0  0  0  0  0  0  0  0  0  0  0
    5.6692   11.3177   27.4586 C   0  0  0  0  0  0  0  0  0  0  0  0
    5.4226    9.9735   27.6109 N   0  0  0  0  0  0  0  0  0  0  0  0
    4.8609   12.1562   27.8102 O   0  0  0  0  0  0  0  0  0  0  0  0
    8.7656    9.6933   24.2396 C   0  0  0  0  0  0  0  0  0  0  0  0
    9.8488    9.6497   23.3682 C   0  0  0  0  0  0  0  0  0  0  0  0
  1  2  1  0
  2  3  2  0
  2  4  1  0
  4  5  2  0
  5  6  1  0
  6  7  2  0
  7  8  1  0
  8  9  1  0
  9 10  2  0
  9 11  1  0
 11 12  1  0
 11 13  2  0
  7 14  1  0
 14 15  2  0
 15  4  1  0
M  END
>  <distance_score>  (489) 
0.586266

>  <ref_pdb>  (489) 
A1776a

>  <ref_mols>  (489) 
A1776a

>  <alias>  (489) 
None

>  <original SMILES>  (489) 
CC(=O)c1ccc(NC(=O)C(N)=O)cc1

>  <inchikey>  (489) 
QJLXASMDOHNPOL-UHFFFAOYSA-N

>  <exports>  (489) 
['/opt/xchem-fragalysis-2/maxwin/2A_HIPPO/hippo/A71EV2A_10_recipes/Recipe_1LPVPY0_poses.sdf']

>  <original ID>  (489) 
QJLXASMDOHNPOL-UHFFFAOYSA-N

>  <energy_score>  (489) 
-26.94374

>  <tags>  (489) 
[]

>  <HIPPO ID>  (489) 
158999

>  <name>  (489) 
QJLXASMDOHNPOL-UHFFFAOYSA-N

$$$$
KFMLZTJZPGCEDH-UHFFFAOYSA-N
     RDKit          3D

 15 15  0  0  0  0  0  0  0  0999 V2000
   12.2446   11.7949   21.9190 C   0  0  0  0  0  0  0  0  0  0  0  0
   11.5836   10.4729   22.3121 C   0  0  0  0  0  0  0  0  0  0  0  0
   11.7986    9.4302   21.6977 O   0  0  0  0  0  0  0  0  0  0  0  0
   10.5369   10.4738   23.3697 C   0  0  0  0  0  0  0  0  0  0  0  0
    9.5111    9.5420   23.3638 C   0  0  0  0  0  0  0  0  0  0  0  0
    8.4473    9.6848   24.2688 C   0  0  0  0  0  0  0  0  0  0  0  0
    8.3614   10.7619   25.1483 C   0  0  0  0  0  0  0  0  0  0  0  0
    7.2296   10.9078   25.9576 N   0  0  0  0  0  0  0  0  0  0  0  0
    6.9973   11.8985   26.9016 C   0  0  0  0  0  0  0  0  0  0  0  0
    7.8062   12.7087   27.3445 O   0  0  0  0  0  0  0  0  0  0  0  0
    5.5557   11.8767   27.3997 C   0  0  0  0  0  0  0  0  0  0  0  0
    4.7086   11.1128   26.5545 O   0  0  0  0  0  0  0  0  0  0  0  0
    9.4160   11.6344   25.1957 C   0  0  0  0  0  0  0  0  0  0  0  0
   10.5129   11.4168   24.3779 C   0  0  0  0  0  0  0  0  0  0  0  0
   11.9279   12.1273   24.9178 Cl  0  0  0  0  0  0  0  0  0  0  0  0
  1  2  1  0
  2  3  2  0
  2  4  1  0
  4  5  2  0
  5  6  1  0
  6  7  2  0
  7  8  1  0
  8  9  1  0
  9 10  2  0
  9 11  1  0
 11 12  1  0
  7 13  1  0
 13 14  2  0
 14 15  1  0
 14  4  1  0
M  END
>  <distance_score>  (490) 
0.630306

>  <ref_pdb>  (490) 
A1776a

>  <ref_mols>  (490) 
A1776a

>  <alias>  (490) 
None

>  <original SMILES>  (490) 
CC(=O)c1ccc(NC(=O)CO)cc1Cl

>  <inchikey>  (490) 
KFMLZTJZPGCEDH-UHFFFAOYSA-N

>  <exports>  (490) 
['/opt/xchem-fragalysis-2/maxwin/2A_HIPPO/hippo/A71EV2A_10_recipes/Recipe_1LPVPY0_poses.sdf']

>  <original ID>  (490) 
KFMLZTJZPGCEDH-UHFFFAOYSA-N

>  <energy_score>  (490) 
-25.705017

>  <tags>  (490) 
[]

>  <HIPPO ID>  (490) 
159036

>  <name>  (490) 
KFMLZTJZPGCEDH-UHFFFAOYSA-N

$$$$
SUCVUJQIHMMHML-UHFFFAOYSA-N
     RDKit          3D

 16 16  0  0  0  0  0  0  0  0999 V2000
   12.4463   12.1947   21.9770 C   0  0  0  0  0  0  0  0  0  0  0  0
   11.7160   10.9022   22.2565 C   0  0  0  0  0  0  0  0  0  0  0  0
   11.9818    9.8927   21.6076 O   0  0  0  0  0  0  0  0  0  0  0  0
   10.6401   10.9072   23.2927 C   0  0  0  0  0  0  0  0  0  0  0  0
   10.2768   12.1000   23.9293 C   0  0  0  0  0  0  0  0  0  0  0  0
    9.2111   12.1516   24.8345 C   0  0  0  0  0  0  0  0  0  0  0  0
    8.4515   11.0149   25.0571 C   0  0  0  0  0  0  0  0  0  0  0  0
    7.3019   10.9757   25.8385 N   0  0  0  0  0  0  0  0  0  0  0  0
    6.8877   11.8909   26.7755 C   0  0  0  0  0  0  0  0  0  0  0  0
    7.5107   12.8336   27.2345 O   0  0  0  0  0  0  0  0  0  0  0  0
    5.4883   11.4943   27.3128 C   0  0  0  0  0  0  0  0  0  0  0  0
    5.3271   10.1537   27.5786 N   0  0  0  0  0  0  0  0  0  0  0  0
    4.5782   12.2863   27.4619 O   0  0  0  0  0  0  0  0  0  0  0  0
    8.8035    9.8286   24.4368 C   0  0  0  0  0  0  0  0  0  0  0  0
    9.9152    9.7622   23.6045 C   0  0  0  0  0  0  0  0  0  0  0  0
   10.2886    8.2037   23.0486 Cl  0  0  0  0  0  0  0  0  0  0  0  0
  1  2  1  0
  2  3  2  0
  2  4  1  0
  4  5  2  0
  5  6  1  0
  6  7  2  0
  7  8  1  0
  8  9  1  0
  9 10  2  0
  9 11  1  0
 11 12  1  0
 11 13  2  0
  7 14  1  0
 14 15  2  0
 15 16  1  0
 15  4  1  0
M  END
>  <distance_score>  (491) 
0.659485

>  <ref_pdb>  (491) 
A1776a

>  <ref_mols>  (491) 
A1776a

>  <alias>  (491) 
None

>  <original SMILES>  (491) 
CC(=O)c1ccc(NC(=O)C(N)=O)cc1Cl

>  <inchikey>  (491) 
SUCVUJQIHMMHML-UHFFFAOYSA-N

>  <exports>  (491) 
['/opt/xchem-fragalysis-2/maxwin/2A_HIPPO/hippo/A71EV2A_10_recipes/Recipe_1LPVPY0_poses.sdf']

>  <original ID>  (491) 
SUCVUJQIHMMHML-UHFFFAOYSA-N

>  <energy_score>  (491) 
-27.095078

>  <tags>  (491) 
[]

>  <HIPPO ID>  (491) 
159111

>  <name>  (491) 
SUCVUJQIHMMHML-UHFFFAOYSA-N

$$$$
WWXPAHQQJPZLRR-QMMMGPOBSA-N
     RDKit          3D

 16 16  0  0  0  0  0  0  0  0999 V2000
   12.3947   11.9603   21.9392 C   0  0  0  0  0  0  0  0  0  0  0  0
   11.6067   10.7057   22.2937 C   0  0  0  0  0  0  0  0  0  0  0  0
   11.7790    9.6318   21.7204 O   0  0  0  0  0  0  0  0  0  0  0  0
   10.5504   10.8185   23.3330 C   0  0  0  0  0  0  0  0  0  0  0  0
   10.3625   12.0216   24.0015 C   0  0  0  0  0  0  0  0  0  0  0  0
    9.3270   12.1766   24.9147 C   0  0  0  0  0  0  0  0  0  0  0  0
    8.4455   11.1339   25.1764 C   0  0  0  0  0  0  0  0  0  0  0  0
    7.3450   11.2955   26.0477 N   0  0  0  0  0  0  0  0  0  0  0  0
    7.2194   12.3237   26.9652 C   0  0  0  0  0  0  0  0  0  0  0  0
    8.1543   13.0338   27.3458 O   0  0  0  0  0  0  0  0  0  0  0  0
    5.8655   12.5442   27.6074 C   0  0  1  0  0  0  0  0  0  0  0  0
    4.6647   12.3439   26.7130 C   0  0  0  0  0  0  0  0  0  0  0  0
    5.7781   11.7805   28.8496 C   0  0  0  0  0  0  0  0  0  0  0  0
    5.6954   11.2189   29.8607 N   0  0  0  0  0  0  0  0  0  0  0  0
    8.6265    9.9218   24.5056 C   0  0  0  0  0  0  0  0  0  0  0  0
    9.6864    9.7542   23.6006 C   0  0  0  0  0  0  0  0  0  0  0  0
  1  2  1  0
  2  3  2  0
  2  4  1  0
  4  5  2  0
  5  6  1  0
  6  7  2  0
  7  8  1  0
  8  9  1  0
  9 10  2  0
  9 11  1  0
 11 12  1  6
 11 13  1  0
 13 14  3  0
  7 15  1  0
 15 16  2  0
 16  4  1  0
M  END
>  <distance_score>  (492) 
0.941958

>  <ref_pdb>  (492) 
A1776a

>  <ref_mols>  (492) 
A1776a

>  <alias>  (492) 
None

>  <original SMILES>  (492) 
CC(=O)c1ccc(NC(=O)[C@@H](C)C#N)cc1

>  <inchikey>  (492) 
WWXPAHQQJPZLRR-QMMMGPOBSA-N

>  <exports>  (492) 
['/opt/xchem-fragalysis-2/maxwin/2A_HIPPO/hippo/A71EV2A_10_recipes/Recipe_1LPVPY0_poses.sdf']

>  <original ID>  (492) 
WWXPAHQQJPZLRR-QMMMGPOBSA-N

>  <energy_score>  (492) 
-18.150761

>  <tags>  (492) 
[]

>  <HIPPO ID>  (492) 
159117

>  <name>  (492) 
WWXPAHQQJPZLRR-QMMMGPOBSA-N

$$$$
WWXPAHQQJPZLRR-MRVPVSSYSA-N
     RDKit          3D

 16 16  0  0  0  0  0  0  0  0999 V2000
   12.4466   12.0449   21.9157 C   0  0  0  0  0  0  0  0  0  0  0  0
   11.7065   10.7559   22.2249 C   0  0  0  0  0  0  0  0  0  0  0  0
   11.9228    9.7077   21.6183 O   0  0  0  0  0  0  0  0  0  0  0  0
   10.6470   10.7882   23.2609 C   0  0  0  0  0  0  0  0  0  0  0  0
    9.8495    9.6637   23.4610 C   0  0  0  0  0  0  0  0  0  0  0  0
    8.7816    9.7262   24.3555 C   0  0  0  0  0  0  0  0  0  0  0  0
    8.5192   10.8903   25.0815 C   0  0  0  0  0  0  0  0  0  0  0  0
    7.4005   10.8899   25.9314 N   0  0  0  0  0  0  0  0  0  0  0  0
    7.1067   11.8305   26.9083 C   0  0  0  0  0  0  0  0  0  0  0  0
    7.8543   12.7410   27.2615 O   0  0  0  0  0  0  0  0  0  0  0  0
    5.7397   11.6306   27.5502 C   0  0  2  0  0  0  0  0  0  0  0  0
    5.4551   12.7064   28.5904 C   0  0  0  0  0  0  0  0  0  0  0  0
    5.6897   10.3288   28.2190 C   0  0  0  0  0  0  0  0  0  0  0  0
    5.6535    9.3110   28.7728 N   0  0  0  0  0  0  0  0  0  0  0  0
    9.3397   11.9968   24.9030 C   0  0  0  0  0  0  0  0  0  0  0  0
   10.3911   11.9460   23.9915 C   0  0  0  0  0  0  0  0  0  0  0  0
  1  2  1  0
  2  3  2  0
  2  4  1  0
  4  5  2  0
  5  6  1  0
  6  7  2  0
  7  8  1  0
  8  9  1  0
  9 10  2  0
  9 11  1  0
 11 12  1  1
 11 13  1  0
 13 14  3  0
  7 15  1  0
 15 16  2  0
 16  4  1  0
M  END
>  <distance_score>  (493) 
0.567425

>  <ref_pdb>  (493) 
A1776a

>  <ref_mols>  (493) 
A1776a

>  <alias>  (493) 
None

>  <original SMILES>  (493) 
CC(=O)c1ccc(NC(=O)[C@H](C)C#N)cc1

>  <inchikey>  (493) 
WWXPAHQQJPZLRR-MRVPVSSYSA-N

>  <exports>  (493) 
['/opt/xchem-fragalysis-2/maxwin/2A_HIPPO/hippo/A71EV2A_10_recipes/Recipe_1LPVPY0_poses.sdf']

>  <original ID>  (493) 
WWXPAHQQJPZLRR-MRVPVSSYSA-N

>  <energy_score>  (493) 
-12.547109

>  <tags>  (493) 
[]

>  <HIPPO ID>  (493) 
159118

>  <name>  (493) 
WWXPAHQQJPZLRR-MRVPVSSYSA-N

$$$$
UTJKOIXTXLDVII-UHFFFAOYSA-N
     RDKit          3D

 16 16  0  0  0  0  0  0  0  0999 V2000
   12.2566   11.8124   21.9188 C   0  0  0  0  0  0  0  0  0  0  0  0
   11.6042   10.4838   22.3020 C   0  0  0  0  0  0  0  0  0  0  0  0
   11.8247    9.4459   21.6810 O   0  0  0  0  0  0  0  0  0  0  0  0
   10.5545   10.4701   23.3554 C   0  0  0  0  0  0  0  0  0  0  0  0
    9.5335    9.5356   23.3269 C   0  0  0  0  0  0  0  0  0  0  0  0
    8.4503    9.6763   24.2071 C   0  0  0  0  0  0  0  0  0  0  0  0
    8.3394   10.7497   25.0878 C   0  0  0  0  0  0  0  0  0  0  0  0
    7.1632   10.9070   25.8396 N   0  0  0  0  0  0  0  0  0  0  0  0
    6.9289   11.8753   26.8094 C   0  0  0  0  0  0  0  0  0  0  0  0
    7.7793   12.6139   27.2989 O   0  0  0  0  0  0  0  0  0  0  0  0
    5.4848   11.9043   27.2545 C   0  0  0  0  0  0  0  0  0  0  0  0
    5.2512   12.9841   28.2142 C   0  0  0  0  0  0  0  0  0  0  0  0
    5.0391   13.8345   28.9768 N   0  0  0  0  0  0  0  0  0  0  0  0
    9.4033   11.6089   25.1766 C   0  0  0  0  0  0  0  0  0  0  0  0
   10.5146   11.4016   24.3733 C   0  0  0  0  0  0  0  0  0  0  0  0
   11.9172   12.1268   24.9244 Cl  0  0  0  0  0  0  0  0  0  0  0  0
  1  2  1  0
  2  3  2  0
  2  4  1  0
  4  5  2  0
  5  6  1  0
  6  7  2  0
  7  8  1  0
  8  9  1  0
  9 10  2  0
  9 11  1  0
 11 12  1  0
 12 13  3  0
  7 14  1  0
 14 15  2  0
 15 16  1  0
 15  4  1  0
M  END
>  <distance_score>  (494) 
0.625361

>  <ref_pdb>  (494) 
A1776a

>  <ref_mols>  (494) 
A1776a

>  <alias>  (494) 
None

>  <original SMILES>  (494) 
CC(=O)c1ccc(NC(=O)CC#N)cc1Cl

>  <inchikey>  (494) 
UTJKOIXTXLDVII-UHFFFAOYSA-N

>  <exports>  (494) 
['/opt/xchem-fragalysis-2/maxwin/2A_HIPPO/hippo/A71EV2A_10_recipes/Recipe_1LPVPY0_poses.sdf']

>  <original ID>  (494) 
UTJKOIXTXLDVII-UHFFFAOYSA-N

>  <energy_score>  (494) 
-9.440234

>  <tags>  (494) 
[]

>  <HIPPO ID>  (494) 
159288

>  <name>  (494) 
UTJKOIXTXLDVII-UHFFFAOYSA-N

$$$$
BIOPRKYIIXEEOV-UHFFFAOYSA-N
     RDKit          3D

 16 16  0  0  0  0  0  0  0  0999 V2000
    5.5252   13.3809   29.2927 C   0  0  0  0  0  0  0  0  0  0  0  0
    5.0168   13.2156   27.9787 O   0  0  0  0  0  0  0  0  0  0  0  0
    5.5626   12.0867   27.3144 C   0  0  0  0  0  0  0  0  0  0  0  0
    6.9998   12.2345   26.7889 C   0  0  0  0  0  0  0  0  0  0  0  0
    7.7382   13.1571   27.1275 O   0  0  0  0  0  0  0  0  0  0  0  0
    7.3541   11.1902   25.9527 N   0  0  0  0  0  0  0  0  0  0  0  0
    8.4745   11.1454   25.1113 C   0  0  0  0  0  0  0  0  0  0  0  0
    9.2392   12.2577   24.7924 C   0  0  0  0  0  0  0  0  0  0  0  0
   10.2842   12.1534   23.8709 C   0  0  0  0  0  0  0  0  0  0  0  0
   10.6198   10.9320   23.2824 C   0  0  0  0  0  0  0  0  0  0  0  0
   11.7005   10.8821   22.2497 C   0  0  0  0  0  0  0  0  0  0  0  0
   12.4646   12.1550   21.9516 C   0  0  0  0  0  0  0  0  0  0  0  0
   11.9479    9.8543   21.6233 O   0  0  0  0  0  0  0  0  0  0  0  0
    9.8700    9.8146   23.6445 C   0  0  0  0  0  0  0  0  0  0  0  0
   10.1772    8.2425   23.0723 Cl  0  0  0  0  0  0  0  0  0  0  0  0
    8.7867    9.9289   24.5215 C   0  0  0  0  0  0  0  0  0  0  0  0
  1  2  1  0
  2  3  1  0
  3  4  1  0
  4  5  2  0
  4  6  1  0
  6  7  1  0
  7  8  2  0
  8  9  1  0
  9 10  2  0
 10 11  1  0
 11 12  1  0
 11 13  2  0
 10 14  1  0
 14 15  1  0
 14 16  2  0
 16  7  1  0
M  END
>  <distance_score>  (495) 
0.885605

>  <ref_pdb>  (495) 
A1776a

>  <ref_mols>  (495) 
A1776a

>  <alias>  (495) 
None

>  <original SMILES>  (495) 
COCC(=O)Nc1ccc(C(C)=O)c(Cl)c1

>  <inchikey>  (495) 
BIOPRKYIIXEEOV-UHFFFAOYSA-N

>  <exports>  (495) 
['/opt/xchem-fragalysis-2/maxwin/2A_HIPPO/hippo/A71EV2A_10_recipes/Recipe_1LPVPY0_poses.sdf']

>  <original ID>  (495) 
BIOPRKYIIXEEOV-UHFFFAOYSA-N

>  <energy_score>  (495) 
-6.267577

>  <tags>  (495) 
[]

>  <HIPPO ID>  (495) 
159586

>  <name>  (495) 
BIOPRKYIIXEEOV-UHFFFAOYSA-N

$$$$
XSYOCRFSZCGCDT-JTQLQIEISA-N
     RDKit          3D

 16 16  0  0  0  0  0  0  0  0999 V2000
   12.4312   12.0334   21.9246 C   0  0  0  0  0  0  0  0  0  0  0  0
   11.6845   10.7497   22.2439 C   0  0  0  0  0  0  0  0  0  0  0  0
   11.8882    9.6980   21.6390 O   0  0  0  0  0  0  0  0  0  0  0  0
   10.6336   10.7937   23.2893 C   0  0  0  0  0  0  0  0  0  0  0  0
   10.3962   11.9571   24.0169 C   0  0  0  0  0  0  0  0  0  0  0  0
    9.3576   12.0227   24.9417 C   0  0  0  0  0  0  0  0  0  0  0  0
    8.5303   10.9253   25.1383 C   0  0  0  0  0  0  0  0  0  0  0  0
    7.4242   10.9465   25.9999 N   0  0  0  0  0  0  0  0  0  0  0  0
    7.0957   11.9293   26.9156 C   0  0  0  0  0  0  0  0  0  0  0  0
    7.8313   12.8474   27.2765 O   0  0  0  0  0  0  0  0  0  0  0  0
    5.7028   11.7638   27.5506 C   0  0  1  0  0  0  0  0  0  0  0  0
    4.8474   10.8013   26.8303 N   0  0  0  0  0  0  0  0  0  0  0  0
    5.8491   11.3946   29.0262 C   0  0  0  0  0  0  0  0  0  0  0  0
    6.3867    9.7023   29.2415 Cl  0  0  0  0  0  0  0  0  0  0  0  0
    8.7709    9.7550   24.4138 C   0  0  0  0  0  0  0  0  0  0  0  0
    9.8270    9.6781   23.5046 C   0  0  0  0  0  0  0  0  0  0  0  0
  1  2  1  0
  2  3  2  0
  2  4  1  0
  4  5  2  0
  5  6  1  0
  6  7  2  0
  7  8  1  0
  8  9  1  0
  9 10  2  0
  9 11  1  0
 11 12  1  6
 11 13  1  0
 13 14  1  0
  7 15  1  0
 15 16  2  0
 16  4  1  0
M  END
>  <distance_score>  (496) 
0.571148

>  <ref_pdb>  (496) 
A1776a

>  <ref_mols>  (496) 
A1776a

>  <alias>  (496) 
None

>  <original SMILES>  (496) 
CC(=O)c1ccc(NC(=O)[C@@H](N)CCl)cc1

>  <inchikey>  (496) 
XSYOCRFSZCGCDT-JTQLQIEISA-N

>  <exports>  (496) 
['/opt/xchem-fragalysis-2/maxwin/2A_HIPPO/hippo/A71EV2A_10_recipes/Recipe_1LPVPY0_poses.sdf']

>  <original ID>  (496) 
XSYOCRFSZCGCDT-JTQLQIEISA-N

>  <energy_score>  (496) 
-17.737763

>  <tags>  (496) 
[]

>  <HIPPO ID>  (496) 
159812

>  <name>  (496) 
XSYOCRFSZCGCDT-JTQLQIEISA-N

$$$$
XSYOCRFSZCGCDT-JTQLQIEISA-N
     RDKit          3D

 16 16  0  0  0  0  0  0  0  0999 V2000
   12.4074   12.0082   21.9385 C   0  0  0  0  0  0  0  0  0  0  0  0
   11.6495   10.7323   22.2702 C   0  0  0  0  0  0  0  0  0  0  0  0
   11.8461    9.6731   21.6769 O   0  0  0  0  0  0  0  0  0  0  0  0
   10.5961   10.7982   23.3140 C   0  0  0  0  0  0  0  0  0  0  0  0
    9.7661    9.7012   23.5429 C   0  0  0  0  0  0  0  0  0  0  0  0
    8.7055    9.8103   24.4481 C   0  0  0  0  0  0  0  0  0  0  0  0
    8.4850   10.9949   25.1548 C   0  0  0  0  0  0  0  0  0  0  0  0
    7.3731   11.0687   26.0106 N   0  0  0  0  0  0  0  0  0  0  0  0
    7.1129   12.0694   26.9295 C   0  0  0  0  0  0  0  0  0  0  0  0
    7.9266   12.9056   27.3232 O   0  0  0  0  0  0  0  0  0  0  0  0
    5.7119   12.0258   27.5573 C   0  0  1  0  0  0  0  0  0  0  0  0
    4.6722   11.5877   26.6087 N   0  0  0  0  0  0  0  0  0  0  0  0
    5.7424   11.1717   28.8261 C   0  0  0  0  0  0  0  0  0  0  0  0
    5.8453    9.4260   28.4693 Cl  0  0  0  0  0  0  0  0  0  0  0  0
    9.3369   12.0716   24.9435 C   0  0  0  0  0  0  0  0  0  0  0  0
   10.3781   11.9740   24.0257 C   0  0  0  0  0  0  0  0  0  0  0  0
  1  2  1  0
  2  3  2  0
  2  4  1  0
  4  5  2  0
  5  6  1  0
  6  7  2  0
  7  8  1  0
  8  9  1  0
  9 10  2  0
  9 11  1  0
 11 12  1  6
 11 13  1  0
 13 14  1  0
  7 15  1  0
 15 16  2  0
 16  4  1  0
M  END
>  <distance_score>  (497) 
0.585016

>  <ref_pdb>  (497) 
A1776a

>  <ref_mols>  (497) 
A1776a

>  <alias>  (497) 
None

>  <original SMILES>  (497) 
CC(=O)c1ccc(NC(=O)[C@@H](N)CCl)cc1

>  <inchikey>  (497) 
XSYOCRFSZCGCDT-JTQLQIEISA-N

>  <exports>  (497) 
['/opt/xchem-fragalysis-2/maxwin/2A_HIPPO/hippo/A71EV2A_10_recipes/Recipe_1LPVPY0_poses.sdf']

>  <original ID>  (497) 
XSYOCRFSZCGCDT-JTQLQIEISA-N

>  <energy_score>  (497) 
-13.772927

>  <tags>  (497) 
[]

>  <HIPPO ID>  (497) 
159813

>  <name>  (497) 
XSYOCRFSZCGCDT-JTQLQIEISA-N

$$$$
SKIQDHSYVQPQOQ-UHFFFAOYSA-N
     RDKit          3D

 16 17  0  0  0  0  0  0  0  0999 V2000
   12.4196   12.0233   21.9370 C   0  0  0  0  0  0  0  0  0  0  0  0
   11.6482   10.7537   22.2566 C   0  0  0  0  0  0  0  0  0  0  0  0
   11.8511    9.6910   21.6711 O   0  0  0  0  0  0  0  0  0  0  0  0
   10.5802   10.8253   23.2845 C   0  0  0  0  0  0  0  0  0  0  0  0
    9.7884    9.7082   23.5465 C   0  0  0  0  0  0  0  0  0  0  0  0
    8.7391    9.8011   24.4658 C   0  0  0  0  0  0  0  0  0  0  0  0
    8.4925   10.9896   25.1599 C   0  0  0  0  0  0  0  0  0  0  0  0
    7.4406   11.0032   26.0968 N   0  0  0  0  0  0  0  0  0  0  0  0
    7.1778   11.9938   27.0313 C   0  0  0  0  0  0  0  0  0  0  0  0
    7.8818   12.9960   27.2100 O   0  0  0  0  0  0  0  0  0  0  0  0
    5.9933   11.7437   27.9613 C   0  0  0  0  0  0  0  0  0  0  0  0
    4.8955   10.7114   27.6796 C   0  0  0  0  0  0  0  0  0  0  0  0
    3.9051   11.6594   28.2452 N   0  0  0  0  0  0  0  0  0  0  0  0
    4.8367   12.7605   27.9053 C   0  0  0  0  0  0  0  0  0  0  0  0
    9.2881   12.0963   24.8912 C   0  0  0  0  0  0  0  0  0  0  0  0
   10.3170   12.0157   23.9561 C   0  0  0  0  0  0  0  0  0  0  0  0
  1  2  1  0
  2  3  2  0
  2  4  1  0
  4  5  2  0
  5  6  1  0
  6  7  2  0
  7  8  1  0
  8  9  1  0
  9 10  2  0
  9 11  1  0
 11 12  1  0
 12 13  1  0
 13 14  1  0
  7 15  1  0
 15 16  2  0
 16  4  1  0
 14 11  1  0
M  END
>  <distance_score>  (498) 
0.630642

>  <ref_pdb>  (498) 
A1776a

>  <ref_mols>  (498) 
A1776a

>  <alias>  (498) 
None

>  <original SMILES>  (498) 
CC(=O)c1ccc(NC(=O)C2CNC2)cc1

>  <inchikey>  (498) 
SKIQDHSYVQPQOQ-UHFFFAOYSA-N

>  <exports>  (498) 
['/opt/xchem-fragalysis-2/maxwin/2A_HIPPO/hippo/A71EV2A_10_recipes/Recipe_1LPVPY0_poses.sdf']

>  <original ID>  (498) 
SKIQDHSYVQPQOQ-UHFFFAOYSA-N

>  <energy_score>  (498) 
-23.111872

>  <tags>  (498) 
[]

>  <HIPPO ID>  (498) 
160012

>  <name>  (498) 
SKIQDHSYVQPQOQ-UHFFFAOYSA-N

$$$$
ZUFDXWBDXIMABW-UHFFFAOYSA-N
     RDKit          3D

 16 16  0  0  0  0  0  0  0  0999 V2000
   12.6718   12.1226   21.7900 C   0  0  0  0  0  0  0  0  0  0  0  0
   11.7850   10.9628   22.1708 C   0  0  0  0  0  0  0  0  0  0  0  0
   11.9182    9.8391   21.6865 O   0  0  0  0  0  0  0  0  0  0  0  0
   10.6885   11.2118   23.1342 C   0  0  0  0  0  0  0  0  0  0  0  0
    9.9814   10.1162   23.6013 C   0  0  0  0  0  0  0  0  0  0  0  0
    8.8585   10.3427   24.3787 C   0  0  0  0  0  0  0  0  0  0  0  0
    7.8635    9.0526   24.7773 Cl  0  0  0  0  0  0  0  0  0  0  0  0
    8.4471   11.6036   24.7855 C   0  0  0  0  0  0  0  0  0  0  0  0
    7.2673   11.7130   25.5602 N   0  0  0  0  0  0  0  0  0  0  0  0
    7.2200   12.3917   26.7634 C   0  0  0  0  0  0  0  0  0  0  0  0
    8.1736   12.9441   27.3027 O   0  0  0  0  0  0  0  0  0  0  0  0
    5.8436   12.2927   27.4225 C   0  0  0  0  0  0  0  0  0  0  0  0
    4.8056   12.8849   26.6670 O   0  0  0  0  0  0  0  0  0  0  0  0
    9.1256   12.6907   24.2677 C   0  0  0  0  0  0  0  0  0  0  0  0
    8.3933   14.2456   24.3313 Cl  0  0  0  0  0  0  0  0  0  0  0  0
   10.2504   12.5022   23.4544 C   0  0  0  0  0  0  0  0  0  0  0  0
  1  2  1  0
  2  3  2  0
  2  4  1  0
  4  5  2  0
  5  6  1  0
  6  7  1  0
  6  8  2  0
  8  9  1  0
  9 10  1  0
 10 11  2  0
 10 12  1  0
 12 13  1  0
  8 14  1  0
 14 15  1  0
 14 16  2  0
 16  4  1  0
M  END
>  <distance_score>  (499) 
0.78171

>  <ref_pdb>  (499) 
A1776a

>  <ref_mols>  (499) 
A1776a

>  <alias>  (499) 
None

>  <original SMILES>  (499) 
CC(=O)c1cc(Cl)c(NC(=O)CO)c(Cl)c1

>  <inchikey>  (499) 
ZUFDXWBDXIMABW-UHFFFAOYSA-N

>  <exports>  (499) 
['/opt/xchem-fragalysis-2/maxwin/2A_HIPPO/hippo/A71EV2A_10_recipes/Recipe_1LPVPY0_poses.sdf']

>  <original ID>  (499) 
ZUFDXWBDXIMABW-UHFFFAOYSA-N

>  <energy_score>  (499) 
-17.931505

>  <tags>  (499) 
[]

>  <HIPPO ID>  (499) 
160025

>  <name>  (499) 
ZUFDXWBDXIMABW-UHFFFAOYSA-N

$$$$
WXXOPIIJGMZRQY-UHFFFAOYSA-N
     RDKit          3D

 16 16  0  0  0  0  0  0  0  0999 V2000
    5.0077   12.7611   28.1445 C   0  0  0  0  0  0  0  0  0  0  0  0
    5.6513   11.7963   27.4795 C   0  0  0  0  0  0  0  0  0  0  0  0
    4.9698   10.2141   27.3724 Cl  0  0  0  0  0  0  0  0  0  0  0  0
    6.9862   12.0712   26.8498 C   0  0  0  0  0  0  0  0  0  0  0  0
    7.6312   13.0742   27.1426 O   0  0  0  0  0  0  0  0  0  0  0  0
    7.3872   11.0724   25.9945 N   0  0  0  0  0  0  0  0  0  0  0  0
    8.4872   11.0809   25.1321 C   0  0  0  0  0  0  0  0  0  0  0  0
    9.2327   12.2096   24.8291 C   0  0  0  0  0  0  0  0  0  0  0  0
   10.2727   12.1317   23.8977 C   0  0  0  0  0  0  0  0  0  0  0  0
   10.6209   10.9219   23.2895 C   0  0  0  0  0  0  0  0  0  0  0  0
   11.6988   10.8919   22.2539 C   0  0  0  0  0  0  0  0  0  0  0  0
   12.4503   12.1731   21.9669 C   0  0  0  0  0  0  0  0  0  0  0  0
   11.9548    9.8730   21.6160 O   0  0  0  0  0  0  0  0  0  0  0  0
    9.8880    9.7908   23.6384 C   0  0  0  0  0  0  0  0  0  0  0  0
   10.2120    8.2280   23.0550 Cl  0  0  0  0  0  0  0  0  0  0  0  0
    8.8097    9.8796   24.5193 C   0  0  0  0  0  0  0  0  0  0  0  0
  1  2  2  0
  2  3  1  0
  2  4  1  0
  4  5  2  0
  4  6  1  0
  6  7  1  0
  7  8  2  0
  8  9  1  0
  9 10  2  0
 10 11  1  0
 11 12  1  0
 11 13  2  0
 10 14  1  0
 14 15  1  0
 14 16  2  0
 16  7  1  0
M  END
>  <distance_score>  (500) 
0.651708

>  <ref_pdb>  (500) 
A1776a

>  <ref_mols>  (500) 
A1776a

>  <alias>  (500) 
None

>  <original SMILES>  (500) 
C=C(Cl)C(=O)Nc1ccc(C(C)=O)c(Cl)c1

>  <inchikey>  (500) 
WXXOPIIJGMZRQY-UHFFFAOYSA-N

>  <exports>  (500) 
['/opt/xchem-fragalysis-2/maxwin/2A_HIPPO/hippo/A71EV2A_10_recipes/Recipe_1LPVPY0_poses.sdf']

>  <original ID>  (500) 
WXXOPIIJGMZRQY-UHFFFAOYSA-N

>  <energy_score>  (500) 
-22.897698

>  <tags>  (500) 
[]

>  <HIPPO ID>  (500) 
160206

>  <name>  (500) 
WXXOPIIJGMZRQY-UHFFFAOYSA-N

$$$$
QFYHHAPVFZZCLN-UHFFFAOYSA-N
     RDKit          3D

 16 16  0  0  0  0  0  0  0  0999 V2000
   12.6683   12.1385   21.7937 C   0  0  0  0  0  0  0  0  0  0  0  0
   11.7843   10.9779   22.1734 C   0  0  0  0  0  0  0  0  0  0  0  0
   11.9201    9.8543   21.6898 O   0  0  0  0  0  0  0  0  0  0  0  0
   10.6885   11.2234   23.1381 C   0  0  0  0  0  0  0  0  0  0  0  0
   10.2396   12.5098   23.4618 C   0  0  0  0  0  0  0  0  0  0  0  0
    9.1151   12.6901   24.2808 C   0  0  0  0  0  0  0  0  0  0  0  0
    8.3719   14.2400   24.3390 Cl  0  0  0  0  0  0  0  0  0  0  0  0
    8.4485   11.5967   24.7999 C   0  0  0  0  0  0  0  0  0  0  0  0
    7.2722   11.6704   25.5843 N   0  0  0  0  0  0  0  0  0  0  0  0
    7.1725   12.3644   26.7737 C   0  0  0  0  0  0  0  0  0  0  0  0
    8.0680   13.0353   27.2797 O   0  0  0  0  0  0  0  0  0  0  0  0
    5.8625   12.1021   27.4973 C   0  0  0  0  0  0  0  0  0  0  0  0
    4.4631   12.8767   26.6561 S   0  0  0  0  0  0  0  0  0  0  0  0
    8.8706   10.3404   24.3842 C   0  0  0  0  0  0  0  0  0  0  0  0
    7.8857    9.0390   24.7743 Cl  0  0  0  0  0  0  0  0  0  0  0  0
    9.9919   10.1224   23.6043 C   0  0  0  0  0  0  0  0  0  0  0  0
  1  2  1  0
  2  3  2  0
  2  4  1  0
  4  5  2  0
  5  6  1  0
  6  7  1  0
  6  8  2  0
  8  9  1  0
  9 10  1  0
 10 11  2  0
 10 12  1  0
 12 13  1  0
  8 14  1  0
 14 15  1  0
 14 16  2  0
 16  4  1  0
M  END
>  <distance_score>  (501) 
1.008272

>  <ref_pdb>  (501) 
A1776a

>  <ref_mols>  (501) 
A1776a

>  <alias>  (501) 
None

>  <original SMILES>  (501) 
CC(=O)c1cc(Cl)c(NC(=O)CS)c(Cl)c1

>  <inchikey>  (501) 
QFYHHAPVFZZCLN-UHFFFAOYSA-N

>  <exports>  (501) 
['/opt/xchem-fragalysis-2/maxwin/2A_HIPPO/hippo/A71EV2A_10_recipes/Recipe_1LPVPY0_poses.sdf']

>  <original ID>  (501) 
QFYHHAPVFZZCLN-UHFFFAOYSA-N

>  <energy_score>  (501) 
-23.174402

>  <tags>  (501) 
[]

>  <HIPPO ID>  (501) 
160222

>  <name>  (501) 
QFYHHAPVFZZCLN-UHFFFAOYSA-N

$$$$
YKBDFLSOOOLRSO-UHFFFAOYSA-N
     RDKit          3D

 16 16  0  0  0  0  0  0  0  0999 V2000
   12.6760   12.1200   21.7863 C   0  0  0  0  0  0  0  0  0  0  0  0
   11.7898   10.9608   22.1708 C   0  0  0  0  0  0  0  0  0  0  0  0
   11.9196    9.8370   21.6860 O   0  0  0  0  0  0  0  0  0  0  0  0
   10.6968   11.2103   23.1380 C   0  0  0  0  0  0  0  0  0  0  0  0
    9.9888   10.1151   23.6053 C   0  0  0  0  0  0  0  0  0  0  0  0
    8.8619   10.3432   24.3761 C   0  0  0  0  0  0  0  0  0  0  0  0
    7.8664    9.0531   24.7778 Cl  0  0  0  0  0  0  0  0  0  0  0  0
    8.4477   11.6059   24.7748 C   0  0  0  0  0  0  0  0  0  0  0  0
    7.2463   11.7212   25.5086 N   0  0  0  0  0  0  0  0  0  0  0  0
    7.1502   12.3714   26.7220 C   0  0  0  0  0  0  0  0  0  0  0  0
    8.0862   12.9087   27.3108 O   0  0  0  0  0  0  0  0  0  0  0  0
    5.7495   12.2206   27.3346 C   0  0  0  0  0  0  0  0  0  0  0  0
    5.5298   13.2065   28.3951 N   0  0  0  0  0  0  0  0  0  0  0  0
    9.1349   12.6920   24.2686 C   0  0  0  0  0  0  0  0  0  0  0  0
    8.4086   14.2485   24.3361 Cl  0  0  0  0  0  0  0  0  0  0  0  0
   10.2625   12.5015   23.4601 C   0  0  0  0  0  0  0  0  0  0  0  0
  1  2  1  0
  2  3  2  0
  2  4  1  0
  4  5  2  0
  5  6  1  0
  6  7  1  0
  6  8  2  0
  8  9  1  0
  9 10  1  0
 10 11  2  0
 10 12  1  0
 12 13  1  0
  8 14  1  0
 14 15  1  0
 14 16  2  0
 16  4  1  0
M  END
>  <distance_score>  (502) 
0.774548

>  <ref_pdb>  (502) 
A1776a

>  <ref_mols>  (502) 
A1776a

>  <alias>  (502) 
None

>  <original SMILES>  (502) 
CC(=O)c1cc(Cl)c(NC(=O)CN)c(Cl)c1

>  <inchikey>  (502) 
YKBDFLSOOOLRSO-UHFFFAOYSA-N

>  <exports>  (502) 
['/opt/xchem-fragalysis-2/maxwin/2A_HIPPO/hippo/A71EV2A_10_recipes/Recipe_1LPVPY0_poses.sdf']

>  <original ID>  (502) 
YKBDFLSOOOLRSO-UHFFFAOYSA-N

>  <energy_score>  (502) 
-16.912038

>  <tags>  (502) 
[]

>  <HIPPO ID>  (502) 
160538

>  <name>  (502) 
YKBDFLSOOOLRSO-UHFFFAOYSA-N

$$$$
ZPTBBFFYYDJPDQ-UHFFFAOYSA-N
     RDKit          3D

 16 16  0  0  0  0  0  0  0  0999 V2000
   12.6982   12.1177   21.7682 C   0  0  0  0  0  0  0  0  0  0  0  0
   11.8127   10.9579   22.1500 C   0  0  0  0  0  0  0  0  0  0  0  0
   11.9431    9.8354   21.6624 O   0  0  0  0  0  0  0  0  0  0  0  0
   10.7211   11.2052   23.1181 C   0  0  0  0  0  0  0  0  0  0  0  0
   10.0199   10.1073   23.5872 C   0  0  0  0  0  0  0  0  0  0  0  0
    8.8945   10.3305   24.3604 C   0  0  0  0  0  0  0  0  0  0  0  0
    7.9043    9.0358   24.7542 Cl  0  0  0  0  0  0  0  0  0  0  0  0
    8.4749   11.5900   24.7624 C   0  0  0  0  0  0  0  0  0  0  0  0
    7.2822   11.6922   25.5143 N   0  0  0  0  0  0  0  0  0  0  0  0
    7.1631   12.4340   26.6746 C   0  0  0  0  0  0  0  0  0  0  0  0
    8.1044   13.0034   27.2201 O   0  0  0  0  0  0  0  0  0  0  0  0
    5.7379   12.4378   27.1995 C   0  0  0  0  0  0  0  0  0  0  0  0
    5.7143   12.6851   28.9555 Cl  0  0  0  0  0  0  0  0  0  0  0  0
    9.1516   12.6800   24.2465 C   0  0  0  0  0  0  0  0  0  0  0  0
    8.4098   14.2326   24.2901 Cl  0  0  0  0  0  0  0  0  0  0  0  0
   10.2796   12.4945   23.4371 C   0  0  0  0  0  0  0  0  0  0  0  0
  1  2  1  0
  2  3  2  0
  2  4  1  0
  4  5  2  0
  5  6  1  0
  6  7  1  0
  6  8  2  0
  8  9  1  0
  9 10  1  0
 10 11  2  0
 10 12  1  0
 12 13  1  0
  8 14  1  0
 14 15  1  0
 14 16  2  0
 16  4  1  0
M  END
>  <distance_score>  (503) 
0.773682

>  <ref_pdb>  (503) 
A1776a

>  <ref_mols>  (503) 
A1776a

>  <alias>  (503) 
None

>  <original SMILES>  (503) 
CC(=O)c1cc(Cl)c(NC(=O)CCl)c(Cl)c1

>  <inchikey>  (503) 
ZPTBBFFYYDJPDQ-UHFFFAOYSA-N

>  <exports>  (503) 
['/opt/xchem-fragalysis-2/maxwin/2A_HIPPO/hippo/A71EV2A_10_recipes/Recipe_1LPVPY0_poses.sdf']

>  <original ID>  (503) 
ZPTBBFFYYDJPDQ-UHFFFAOYSA-N

>  <energy_score>  (503) 
-11.755768

>  <tags>  (503) 
[]

>  <HIPPO ID>  (503) 
160566

>  <name>  (503) 
ZPTBBFFYYDJPDQ-UHFFFAOYSA-N

$$$$
DCFHYCDXEDVHAN-UHFFFAOYSA-N
     RDKit          3D

 17 17  0  0  0  0  0  0  0  0999 V2000
    5.5398   12.9273   28.4893 C   0  0  0  0  0  0  0  0  0  0  0  0
    5.9182   12.1204   27.4915 C   0  0  0  0  0  0  0  0  0  0  0  0
    4.9672   10.7374   27.0881 Cl  0  0  0  0  0  0  0  0  0  0  0  0
    7.2033   12.3764   26.7562 C   0  0  0  0  0  0  0  0  0  0  0  0
    8.0778   13.0921   27.2342 O   0  0  0  0  0  0  0  0  0  0  0  0
    7.3185   11.6521   25.5956 N   0  0  0  0  0  0  0  0  0  0  0  0
    8.4794   11.5827   24.7936 C   0  0  0  0  0  0  0  0  0  0  0  0
    8.8969   10.3282   24.3702 C   0  0  0  0  0  0  0  0  0  0  0  0
    7.9144    9.0253   24.7568 Cl  0  0  0  0  0  0  0  0  0  0  0  0
   10.0146   10.1122   23.5849 C   0  0  0  0  0  0  0  0  0  0  0  0
   10.7105   11.2140   23.1206 C   0  0  0  0  0  0  0  0  0  0  0  0
   11.8046   10.9708   22.1544 C   0  0  0  0  0  0  0  0  0  0  0  0
   12.6879   12.1323   21.7766 C   0  0  0  0  0  0  0  0  0  0  0  0
   11.9409    9.8484   21.6680 O   0  0  0  0  0  0  0  0  0  0  0  0
   10.2621   12.4995   23.4466 C   0  0  0  0  0  0  0  0  0  0  0  0
    9.1405   12.6774   24.2695 C   0  0  0  0  0  0  0  0  0  0  0  0
    8.3879   14.2246   24.3131 Cl  0  0  0  0  0  0  0  0  0  0  0  0
  1  2  2  0
  2  3  1  0
  2  4  1  0
  4  5  2  0
  4  6  1  0
  6  7  1  0
  7  8  2  0
  8  9  1  0
  8 10  1  0
 10 11  2  0
 11 12  1  0
 12 13  1  0
 12 14  2  0
 11 15  1  0
 15 16  2  0
 16 17  1  0
 16  7  1  0
M  END
>  <distance_score>  (504) 
0.996309

>  <ref_pdb>  (504) 
A1776a

>  <ref_mols>  (504) 
A1776a

>  <alias>  (504) 
None

>  <original SMILES>  (504) 
C=C(Cl)C(=O)Nc1c(Cl)cc(C(C)=O)cc1Cl

>  <inchikey>  (504) 
DCFHYCDXEDVHAN-UHFFFAOYSA-N

>  <exports>  (504) 
['/opt/xchem-fragalysis-2/maxwin/2A_HIPPO/hippo/A71EV2A_10_recipes/Recipe_1LPVPY0_poses.sdf']

>  <original ID>  (504) 
DCFHYCDXEDVHAN-UHFFFAOYSA-N

>  <energy_score>  (504) 
-21.789769

>  <tags>  (504) 
[]

>  <HIPPO ID>  (504) 
160671

>  <name>  (504) 
DCFHYCDXEDVHAN-UHFFFAOYSA-N

$$$$
VCGKZOKPWSQKEF-UHFFFAOYSA-N
     RDKit          3D

 17 17  0  0  0  0  0  0  0  0999 V2000
   12.7038   12.1279   21.7634 C   0  0  0  0  0  0  0  0  0  0  0  0
   11.8208   10.9670   22.1426 C   0  0  0  0  0  0  0  0  0  0  0  0
   11.9556    9.8445   21.6563 O   0  0  0  0  0  0  0  0  0  0  0  0
   10.7279   11.2105   23.1097 C   0  0  0  0  0  0  0  0  0  0  0  0
   10.0343   10.1075   23.5754 C   0  0  0  0  0  0  0  0  0  0  0  0
    8.9117   10.3225   24.3526 C   0  0  0  0  0  0  0  0  0  0  0  0
    7.9294    9.0210   24.7402 Cl  0  0  0  0  0  0  0  0  0  0  0  0
    8.4859   11.5775   24.7643 C   0  0  0  0  0  0  0  0  0  0  0  0
    7.3016   11.6561   25.5356 N   0  0  0  0  0  0  0  0  0  0  0  0
    7.1824   12.3939   26.6935 C   0  0  0  0  0  0  0  0  0  0  0  0
    8.0976   13.0243   27.2161 O   0  0  0  0  0  0  0  0  0  0  0  0
    5.8084   12.3076   27.3149 C   0  0  0  0  0  0  0  0  0  0  0  0
    5.9080   11.7337   28.6553 C   0  0  0  0  0  0  0  0  0  0  0  0
    5.9656   11.2662   29.7162 N   0  0  0  0  0  0  0  0  0  0  0  0
    9.1527   12.6732   24.2491 C   0  0  0  0  0  0  0  0  0  0  0  0
    8.4030   14.2209   24.3058 Cl  0  0  0  0  0  0  0  0  0  0  0  0
   10.2790   12.4966   23.4339 C   0  0  0  0  0  0  0  0  0  0  0  0
  1  2  1  0
  2  3  2  0
  2  4  1  0
  4  5  2  0
  5  6  1  0
  6  7  1  0
  6  8  2  0
  8  9  1  0
  9 10  1  0
 10 11  2  0
 10 12  1  0
 12 13  1  0
 13 14  3  0
  8 15  1  0
 15 16  1  0
 15 17  2  0
 17  4  1  0
M  END
>  <distance_score>  (505) 
0.958826

>  <ref_pdb>  (505) 
A1776a

>  <ref_mols>  (505) 
A1776a

>  <alias>  (505) 
None

>  <original SMILES>  (505) 
CC(=O)c1cc(Cl)c(NC(=O)CC#N)c(Cl)c1

>  <inchikey>  (505) 
VCGKZOKPWSQKEF-UHFFFAOYSA-N

>  <exports>  (505) 
['/opt/xchem-fragalysis-2/maxwin/2A_HIPPO/hippo/A71EV2A_10_recipes/Recipe_1LPVPY0_poses.sdf']

>  <original ID>  (505) 
VCGKZOKPWSQKEF-UHFFFAOYSA-N

>  <energy_score>  (505) 
-41.591034

>  <tags>  (505) 
[]

>  <HIPPO ID>  (505) 
160783

>  <name>  (505) 
VCGKZOKPWSQKEF-UHFFFAOYSA-N

$$$$
JDBOZTWZTXPHSJ-UHFFFAOYSA-N
     RDKit          3D

 17 17  0  0  0  0  0  0  0  0999 V2000
    4.3962   10.5193   28.2634 C   0  0  0  0  0  0  0  0  0  0  0  0
    5.6179   10.7799   27.5884 O   0  0  0  0  0  0  0  0  0  0  0  0
    5.8691   12.1803   27.4721 C   0  0  0  0  0  0  0  0  0  0  0  0
    7.2195   12.3925   26.7952 C   0  0  0  0  0  0  0  0  0  0  0  0
    8.0826   13.1246   27.2686 O   0  0  0  0  0  0  0  0  0  0  0  0
    7.3382   11.6306   25.6536 N   0  0  0  0  0  0  0  0  0  0  0  0
    8.4838   11.5693   24.8288 C   0  0  0  0  0  0  0  0  0  0  0  0
    9.1365   12.6662   24.2992 C   0  0  0  0  0  0  0  0  0  0  0  0
    8.3843   14.2120   24.3587 Cl  0  0  0  0  0  0  0  0  0  0  0  0
   10.2520   12.4952   23.4652 C   0  0  0  0  0  0  0  0  0  0  0  0
   10.7024   11.2131   23.1304 C   0  0  0  0  0  0  0  0  0  0  0  0
   11.7956   10.9751   22.1618 C   0  0  0  0  0  0  0  0  0  0  0  0
   12.6746   12.1402   21.7856 C   0  0  0  0  0  0  0  0  0  0  0  0
   11.9387    9.8534   21.6754 O   0  0  0  0  0  0  0  0  0  0  0  0
   10.0094   10.1093   23.5917 C   0  0  0  0  0  0  0  0  0  0  0  0
    8.8980   10.3203   24.3880 C   0  0  0  0  0  0  0  0  0  0  0  0
    7.9104    9.0169   24.7510 Cl  0  0  0  0  0  0  0  0  0  0  0  0
  1  2  1  0
  2  3  1  0
  3  4  1  0
  4  5  2  0
  4  6  1  0
  6  7  1  0
  7  8  2  0
  8  9  1  0
  8 10  1  0
 10 11  2  0
 11 12  1  0
 12 13  1  0
 12 14  2  0
 11 15  1  0
 15 16  2  0
 16 17  1  0
 16  7  1  0
M  END
>  <distance_score>  (506) 
0.76913

>  <ref_pdb>  (506) 
A1776a

>  <ref_mols>  (506) 
A1776a

>  <alias>  (506) 
None

>  <original SMILES>  (506) 
COCC(=O)Nc1c(Cl)cc(C(C)=O)cc1Cl

>  <inchikey>  (506) 
JDBOZTWZTXPHSJ-UHFFFAOYSA-N

>  <exports>  (506) 
['/opt/xchem-fragalysis-2/maxwin/2A_HIPPO/hippo/A71EV2A_10_recipes/Recipe_1LPVPY0_poses.sdf']

>  <original ID>  (506) 
JDBOZTWZTXPHSJ-UHFFFAOYSA-N

>  <energy_score>  (506) 
-18.098634

>  <tags>  (506) 
[]

>  <HIPPO ID>  (506) 
161662

>  <name>  (506) 
JDBOZTWZTXPHSJ-UHFFFAOYSA-N

$$$$
UFGVHQYSLOSSJS-UHFFFAOYSA-N
     RDKit          3D

 17 18  0  0  0  0  0  0  0  0999 V2000
   12.7732   11.8907   21.7053 C   0  0  0  0  0  0  0  0  0  0  0  0
   11.8537   10.7228   22.0255 C   0  0  0  0  0  0  0  0  0  0  0  0
   12.0000    9.6335   21.4653 O   0  0  0  0  0  0  0  0  0  0  0  0
   10.7594   10.8388   23.0317 C   0  0  0  0  0  0  0  0  0  0  0  0
   10.1970    9.6393   23.4907 C   0  0  0  0  0  0  0  0  0  0  0  0
    9.1168    9.6474   24.3750 C   0  0  0  0  0  0  0  0  0  0  0  0
    8.6388   10.8436   24.9020 C   0  0  0  0  0  0  0  0  0  0  0  0
    7.5548   10.7874   25.7956 N   0  0  0  0  0  0  0  0  0  0  0  0
    7.1265   11.8010   26.6388 C   0  0  0  0  0  0  0  0  0  0  0  0
    7.7939   12.8078   26.8968 O   0  0  0  0  0  0  0  0  0  0  0  0
    5.7576   11.5087   27.2977 C   0  0  0  0  0  0  0  0  0  0  0  0
    5.5997   11.8565   28.7955 C   0  0  0  0  0  0  0  0  0  0  0  0
    4.2238   12.3087   28.4943 N   0  0  0  0  0  0  0  0  0  0  0  0
    4.6505   12.5641   27.1003 C   0  0  0  0  0  0  0  0  0  0  0  0
    9.1913   12.0381   24.4540 C   0  0  0  0  0  0  0  0  0  0  0  0
   10.1982   12.0347   23.4775 C   0  0  0  0  0  0  0  0  0  0  0  0
   10.4884   13.5438   22.7109 Cl  0  0  0  0  0  0  0  0  0  0  0  0
  1  2  1  0
  2  3  2  0
  2  4  1  0
  4  5  2  0
  5  6  1  0
  6  7  2  0
  7  8  1  0
  8  9  1  0
  9 10  2  0
  9 11  1  0
 11 12  1  0
 12 13  1  0
 13 14  1  0
  7 15  1  0
 15 16  2  0
 16 17  1  0
 16  4  1  0
 14 11  1  0
M  END
>  <distance_score>  (507) 
0.767957

>  <ref_pdb>  (507) 
A1776a

>  <ref_mols>  (507) 
A1776a

>  <alias>  (507) 
None

>  <original SMILES>  (507) 
CC(=O)c1ccc(NC(=O)C2CNC2)cc1Cl

>  <inchikey>  (507) 
UFGVHQYSLOSSJS-UHFFFAOYSA-N

>  <exports>  (507) 
['/opt/xchem-fragalysis-2/maxwin/2A_HIPPO/hippo/A71EV2A_10_recipes/Recipe_1LPVPY0_poses.sdf']

>  <original ID>  (507) 
UFGVHQYSLOSSJS-UHFFFAOYSA-N

>  <energy_score>  (507) 
-27.826454

>  <tags>  (507) 
[]

>  <HIPPO ID>  (507) 
161956

>  <name>  (507) 
UFGVHQYSLOSSJS-UHFFFAOYSA-N

$$$$
DNUFQHUYWPKDIT-JTQLQIEISA-N
     RDKit          3D

 17 17  0  0  0  0  0  0  0  0999 V2000
   12.3140   11.8350   21.8707 C   0  0  0  0  0  0  0  0  0  0  0  0
   11.6680   10.4996   22.2438 C   0  0  0  0  0  0  0  0  0  0  0  0
   11.8924    9.4676   21.6144 O   0  0  0  0  0  0  0  0  0  0  0  0
   10.6285   10.4668   23.3039 C   0  0  0  0  0  0  0  0  0  0  0  0
    9.6230    9.5140   23.2817 C   0  0  0  0  0  0  0  0  0  0  0  0
    8.5616    9.6203   24.1892 C   0  0  0  0  0  0  0  0  0  0  0  0
    8.4609   10.6838   25.0824 C   0  0  0  0  0  0  0  0  0  0  0  0
    7.3178   10.8219   25.8648 N   0  0  0  0  0  0  0  0  0  0  0  0
    7.0287   11.8536   26.7474 C   0  0  0  0  0  0  0  0  0  0  0  0
    7.8343   12.5919   27.3073 O   0  0  0  0  0  0  0  0  0  0  0  0
    5.5212   12.0559   26.8614 C   0  0  1  0  0  0  0  0  0  0  0  0
    4.8275   10.7432   26.8954 N   0  0  0  0  0  0  0  0  0  0  0  0
    5.1481   12.9502   28.0286 C   0  0  0  0  0  0  0  0  0  0  0  0
    3.4824   13.5453   27.7586 Cl  0  0  0  0  0  0  0  0  0  0  0  0
    9.4916   11.5794   25.1446 C   0  0  0  0  0  0  0  0  0  0  0  0
   10.5886   11.3942   24.3257 C   0  0  0  0  0  0  0  0  0  0  0  0
   11.9800   12.1282   24.8857 Cl  0  0  0  0  0  0  0  0  0  0  0  0
  1  2  1  0
  2  3  2  0
  2  4  1  0
  4  5  2  0
  5  6  1  0
  6  7  2  0
  7  8  1  0
  8  9  1  0
  9 10  2  0
  9 11  1  0
 11 12  1  1
 11 13  1  0
 13 14  1  0
  7 15  1  0
 15 16  2  0
 16 17  1  0
 16  4  1  0
M  END
>  <distance_score>  (508) 
0.591627

>  <ref_pdb>  (508) 
A1776a

>  <ref_mols>  (508) 
A1776a

>  <alias>  (508) 
None

>  <original SMILES>  (508) 
CC(=O)c1ccc(NC(=O)[C@@H](N)CCl)cc1Cl

>  <inchikey>  (508) 
DNUFQHUYWPKDIT-JTQLQIEISA-N

>  <exports>  (508) 
['/opt/xchem-fragalysis-2/maxwin/2A_HIPPO/hippo/A71EV2A_10_recipes/Recipe_1LPVPY0_poses.sdf']

>  <original ID>  (508) 
DNUFQHUYWPKDIT-JTQLQIEISA-N

>  <energy_score>  (508) 
-11.818726

>  <tags>  (508) 
[]

>  <HIPPO ID>  (508) 
162066

>  <name>  (508) 
DNUFQHUYWPKDIT-JTQLQIEISA-N

$$$$
DNUFQHUYWPKDIT-JTQLQIEISA-N
     RDKit          3D

 17 17  0  0  0  0  0  0  0  0999 V2000
   12.2635   11.7944   21.8982 C   0  0  0  0  0  0  0  0  0  0  0  0
   11.5966   10.4739   22.2893 C   0  0  0  0  0  0  0  0  0  0  0  0
   11.8163    9.4278   21.6827 O   0  0  0  0  0  0  0  0  0  0  0  0
   10.5441   10.4783   23.3400 C   0  0  0  0  0  0  0  0  0  0  0  0
    9.5222    9.5420   23.3439 C   0  0  0  0  0  0  0  0  0  0  0  0
    8.4656    9.6777   24.2604 C   0  0  0  0  0  0  0  0  0  0  0  0
    8.3791   10.7561   25.1393 C   0  0  0  0  0  0  0  0  0  0  0  0
    7.2773   10.8613   26.0043 N   0  0  0  0  0  0  0  0  0  0  0  0
    7.0563   11.8548   26.9372 C   0  0  0  0  0  0  0  0  0  0  0  0
    7.8252   12.7878   27.1918 O   0  0  0  0  0  0  0  0  0  0  0  0
    5.7714   11.7282   27.7885 C   0  0  1  0  0  0  0  0  0  0  0  0
    5.4148   13.1073   28.2392 N   0  0  0  0  0  0  0  0  0  0  0  0
    4.5632   11.1446   27.0819 C   0  0  0  0  0  0  0  0  0  0  0  0
    4.7298    9.3948   26.8045 Cl  0  0  0  0  0  0  0  0  0  0  0  0
    9.4250   11.6408   25.1632 C   0  0  0  0  0  0  0  0  0  0  0  0
   10.5188   11.4253   24.3423 C   0  0  0  0  0  0  0  0  0  0  0  0
   11.9346   12.1257   24.8958 Cl  0  0  0  0  0  0  0  0  0  0  0  0
  1  2  1  0
  2  3  2  0
  2  4  1  0
  4  5  2  0
  5  6  1  0
  6  7  2  0
  7  8  1  0
  8  9  1  0
  9 10  2  0
  9 11  1  0
 11 12  1  6
 11 13  1  0
 13 14  1  0
  7 15  1  0
 15 16  2  0
 16 17  1  0
 16  4  1  0
M  END
>  <distance_score>  (509) 
0.633483

>  <ref_pdb>  (509) 
A1776a

>  <ref_mols>  (509) 
A1776a

>  <alias>  (509) 
None

>  <original SMILES>  (509) 
CC(=O)c1ccc(NC(=O)[C@@H](N)CCl)cc1Cl

>  <inchikey>  (509) 
DNUFQHUYWPKDIT-JTQLQIEISA-N

>  <exports>  (509) 
['/opt/xchem-fragalysis-2/maxwin/2A_HIPPO/hippo/A71EV2A_10_recipes/Recipe_1LPVPY0_poses.sdf']

>  <original ID>  (509) 
DNUFQHUYWPKDIT-JTQLQIEISA-N

>  <energy_score>  (509) 
-24.605324

>  <tags>  (509) 
[]

>  <HIPPO ID>  (509) 
162067

>  <name>  (509) 
DNUFQHUYWPKDIT-JTQLQIEISA-N

$$$$
FRFLXZMCYMXDDC-ZETCQYMHSA-N
     RDKit          3D

 17 17  0  0  0  0  0  0  0  0999 V2000
   12.2585   11.8062   21.9084 C   0  0  0  0  0  0  0  0  0  0  0  0
   11.5922   10.4850   22.2963 C   0  0  0  0  0  0  0  0  0  0  0  0
   11.8140    9.4401   21.6878 O   0  0  0  0  0  0  0  0  0  0  0  0
   10.5352   10.4871   23.3432 C   0  0  0  0  0  0  0  0  0  0  0  0
    9.5192    9.5463   23.3394 C   0  0  0  0  0  0  0  0  0  0  0  0
    8.4553    9.6798   24.2460 C   0  0  0  0  0  0  0  0  0  0  0  0
    8.3529   10.7591   25.1233 C   0  0  0  0  0  0  0  0  0  0  0  0
    7.2358   10.8531   25.9717 N   0  0  0  0  0  0  0  0  0  0  0  0
    7.0001   11.8357   26.9247 C   0  0  0  0  0  0  0  0  0  0  0  0
    7.7388   12.7896   27.1731 O   0  0  0  0  0  0  0  0  0  0  0  0
    5.7683   11.6274   27.7881 C   0  0  1  0  0  0  0  0  0  0  0  0
    4.5211   11.2498   27.0233 C   0  0  0  0  0  0  0  0  0  0  0  0
    6.0685   10.6104   28.7940 C   0  0  0  0  0  0  0  0  0  0  0  0
    6.2971    9.7850   29.5759 N   0  0  0  0  0  0  0  0  0  0  0  0
    9.3978   11.6443   25.1638 C   0  0  0  0  0  0  0  0  0  0  0  0
   10.4990   11.4323   24.3483 C   0  0  0  0  0  0  0  0  0  0  0  0
   11.9140   12.1308   24.9056 Cl  0  0  0  0  0  0  0  0  0  0  0  0
  1  2  1  0
  2  3  2  0
  2  4  1  0
  4  5  2  0
  5  6  1  0
  6  7  2  0
  7  8  1  0
  8  9  1  0
  9 10  2  0
  9 11  1  0
 11 12  1  6
 11 13  1  0
 13 14  3  0
  7 15  1  0
 15 16  2  0
 16 17  1  0
 16  4  1  0
M  END
>  <distance_score>  (510) 
0.956895

>  <ref_pdb>  (510) 
A1776a

>  <ref_mols>  (510) 
A1776a

>  <alias>  (510) 
None

>  <original SMILES>  (510) 
CC(=O)c1ccc(NC(=O)[C@@H](C)C#N)cc1Cl

>  <inchikey>  (510) 
FRFLXZMCYMXDDC-ZETCQYMHSA-N

>  <exports>  (510) 
['/opt/xchem-fragalysis-2/maxwin/2A_HIPPO/hippo/A71EV2A_10_recipes/Recipe_1LPVPY0_poses.sdf']

>  <original ID>  (510) 
FRFLXZMCYMXDDC-ZETCQYMHSA-N

>  <energy_score>  (510) 
-12.530493

>  <tags>  (510) 
[]

>  <HIPPO ID>  (510) 
162580

>  <name>  (510) 
FRFLXZMCYMXDDC-ZETCQYMHSA-N

$$$$
FRFLXZMCYMXDDC-SSDOTTSWSA-N
     RDKit          3D

 17 17  0  0  0  0  0  0  0  0999 V2000
   12.7270   11.8866   21.7421 C   0  0  0  0  0  0  0  0  0  0  0  0
   11.7852   10.7388   22.0750 C   0  0  0  0  0  0  0  0  0  0  0  0
   11.9176    9.6360   21.5383 O   0  0  0  0  0  0  0  0  0  0  0  0
   10.6832   10.8980   23.0694 C   0  0  0  0  0  0  0  0  0  0  0  0
   10.0911    9.7236   23.5592 C   0  0  0  0  0  0  0  0  0  0  0  0
    9.0154    9.7773   24.4526 C   0  0  0  0  0  0  0  0  0  0  0  0
    8.5727   10.9976   24.9573 C   0  0  0  0  0  0  0  0  0  0  0  0
    7.5259   10.9976   25.9053 N   0  0  0  0  0  0  0  0  0  0  0  0
    7.2677   12.0177   26.8069 C   0  0  0  0  0  0  0  0  0  0  0  0
    7.9912   13.0045   26.9605 O   0  0  0  0  0  0  0  0  0  0  0  0
    6.0495   11.8633   27.7067 C   0  0  2  0  0  0  0  0  0  0  0  0
    5.5630   10.4456   27.9516 C   0  0  0  0  0  0  0  0  0  0  0  0
    4.9626   12.7358   27.2583 C   0  0  0  0  0  0  0  0  0  0  0  0
    4.0593   13.4156   26.9973 N   0  0  0  0  0  0  0  0  0  0  0  0
    9.1402   12.1656   24.4592 C   0  0  0  0  0  0  0  0  0  0  0  0
   10.1431   12.1162   23.4791 C   0  0  0  0  0  0  0  0  0  0  0  0
   10.4588   13.6009   22.6727 Cl  0  0  0  0  0  0  0  0  0  0  0  0
  1  2  1  0
  2  3  2  0
  2  4  1  0
  4  5  2  0
  5  6  1  0
  6  7  2  0
  7  8  1  0
  8  9  1  0
  9 10  2  0
  9 11  1  0
 11 12  1  6
 11 13  1  0
 13 14  3  0
  7 15  1  0
 15 16  2  0
 16 17  1  0
 16  4  1  0
M  END
>  <distance_score>  (511) 
0.793903

>  <ref_pdb>  (511) 
A1776a

>  <ref_mols>  (511) 
A1776a

>  <alias>  (511) 
None

>  <original SMILES>  (511) 
CC(=O)c1ccc(NC(=O)[C@H](C)C#N)cc1Cl

>  <inchikey>  (511) 
FRFLXZMCYMXDDC-SSDOTTSWSA-N

>  <exports>  (511) 
['/opt/xchem-fragalysis-2/maxwin/2A_HIPPO/hippo/A71EV2A_10_recipes/Recipe_1LPVPY0_poses.sdf']

>  <original ID>  (511) 
FRFLXZMCYMXDDC-SSDOTTSWSA-N

>  <energy_score>  (511) 
-20.346752

>  <tags>  (511) 
[]

>  <HIPPO ID>  (511) 
162581

>  <name>  (511) 
FRFLXZMCYMXDDC-SSDOTTSWSA-N

$$$$
OTJQDXVRPILMPQ-UHFFFAOYSA-N
     RDKit          3D

 17 17  0  0  0  0  0  0  0  0999 V2000
   12.6530   12.1251   21.8057 C   0  0  0  0  0  0  0  0  0  0  0  0
   11.7654   10.9659   22.1880 C   0  0  0  0  0  0  0  0  0  0  0  0
   11.9014    9.8405   21.7091 O   0  0  0  0  0  0  0  0  0  0  0  0
   10.6642   11.2179   23.1464 C   0  0  0  0  0  0  0  0  0  0  0  0
   10.2295   12.5096   23.4656 C   0  0  0  0  0  0  0  0  0  0  0  0
    9.0989   12.7026   24.2703 C   0  0  0  0  0  0  0  0  0  0  0  0
    8.3825   14.2640   24.3415 Cl  0  0  0  0  0  0  0  0  0  0  0  0
    8.4070   11.6188   24.7773 C   0  0  0  0  0  0  0  0  0  0  0  0
    7.2162   11.7381   25.5237 N   0  0  0  0  0  0  0  0  0  0  0  0
    7.1300   12.3717   26.7382 C   0  0  0  0  0  0  0  0  0  0  0  0
    8.0022   12.9977   27.3262 O   0  0  0  0  0  0  0  0  0  0  0  0
    5.7761   12.1012   27.4409 C   0  0  0  0  0  0  0  0  0  0  0  0
    5.7456   12.4467   28.7636 N   0  0  0  0  0  0  0  0  0  0  0  0
    4.8345   11.5851   26.8609 O   0  0  0  0  0  0  0  0  0  0  0  0
    8.8220   10.3551   24.3816 C   0  0  0  0  0  0  0  0  0  0  0  0
    7.8417    9.0607   24.8030 Cl  0  0  0  0  0  0  0  0  0  0  0  0
    9.9513   10.1253   23.6127 C   0  0  0  0  0  0  0  0  0  0  0  0
  1  2  1  0
  2  3  2  0
  2  4  1  0
  4  5  2  0
  5  6  1  0
  6  7  1  0
  6  8  2  0
  8  9  1  0
  9 10  1  0
 10 11  2  0
 10 12  1  0
 12 13  1  0
 12 14  2  0
  8 15  1  0
 15 16  1  0
 15 17  2  0
 17  4  1  0
M  END
>  <distance_score>  (512) 
1.016511

>  <ref_pdb>  (512) 
A1776a

>  <ref_mols>  (512) 
A1776a

>  <alias>  (512) 
None

>  <original SMILES>  (512) 
CC(=O)c1cc(Cl)c(NC(=O)C(N)=O)c(Cl)c1

>  <inchikey>  (512) 
OTJQDXVRPILMPQ-UHFFFAOYSA-N

>  <exports>  (512) 
['/opt/xchem-fragalysis-2/maxwin/2A_HIPPO/hippo/A71EV2A_10_recipes/Recipe_1LPVPY0_poses.sdf']

>  <original ID>  (512) 
OTJQDXVRPILMPQ-UHFFFAOYSA-N

>  <energy_score>  (512) 
-40.777986

>  <tags>  (512) 
[]

>  <HIPPO ID>  (512) 
162917

>  <name>  (512) 
OTJQDXVRPILMPQ-UHFFFAOYSA-N

$$$$
BZNUCVYVKVCYRN-UHFFFAOYSA-N
     RDKit          3D

 18 19  0  0  0  0  0  0  0  0999 V2000
   12.6732   12.1157   21.7885 C   0  0  0  0  0  0  0  0  0  0  0  0
   11.7830   10.9593   22.1739 C   0  0  0  0  0  0  0  0  0  0  0  0
   11.9103    9.8340   21.6922 O   0  0  0  0  0  0  0  0  0  0  0  0
   10.6886   11.2142   23.1385 C   0  0  0  0  0  0  0  0  0  0  0  0
    9.9781   10.1230   23.6122 C   0  0  0  0  0  0  0  0  0  0  0  0
    8.8538   10.3568   24.3864 C   0  0  0  0  0  0  0  0  0  0  0  0
    7.8552    9.0681   24.7928 Cl  0  0  0  0  0  0  0  0  0  0  0  0
    8.4451   11.6230   24.7840 C   0  0  0  0  0  0  0  0  0  0  0  0
    7.2590   11.7354   25.5427 N   0  0  0  0  0  0  0  0  0  0  0  0
    7.1384   12.4592   26.7099 C   0  0  0  0  0  0  0  0  0  0  0  0
    8.0704   13.0761   27.2286 O   0  0  0  0  0  0  0  0  0  0  0  0
    5.7272   12.3336   27.3267 C   0  0  0  0  0  0  0  0  0  0  0  0
    5.4786   12.9693   28.7074 C   0  0  0  0  0  0  0  0  0  0  0  0
    4.6519   11.7966   29.0680 N   0  0  0  0  0  0  0  0  0  0  0  0
    5.3830   11.0135   28.0482 C   0  0  0  0  0  0  0  0  0  0  0  0
    9.1267   12.7053   24.2582 C   0  0  0  0  0  0  0  0  0  0  0  0
    8.3912   14.2624   24.2825 Cl  0  0  0  0  0  0  0  0  0  0  0  0
   10.2534   12.5076   23.4496 C   0  0  0  0  0  0  0  0  0  0  0  0
  1  2  1  0
  2  3  2  0
  2  4  1  0
  4  5  2  0
  5  6  1  0
  6  7  1  0
  6  8  2  0
  8  9  1  0
  9 10  1  0
 10 11  2  0
 10 12  1  0
 12 13  1  0
 13 14  1  0
 14 15  1  0
  8 16  1  0
 16 17  1  0
 16 18  2  0
 18  4  1  0
 15 12  1  0
M  END
>  <distance_score>  (513) 
0.789226

>  <ref_pdb>  (513) 
A1776a

>  <ref_mols>  (513) 
A1776a

>  <alias>  (513) 
None

>  <original SMILES>  (513) 
CC(=O)c1cc(Cl)c(NC(=O)C2CNC2)c(Cl)c1

>  <inchikey>  (513) 
BZNUCVYVKVCYRN-UHFFFAOYSA-N

>  <exports>  (513) 
['/opt/xchem-fragalysis-2/maxwin/2A_HIPPO/hippo/A71EV2A_10_recipes/Recipe_1LPVPY0_poses.sdf']

>  <original ID>  (513) 
BZNUCVYVKVCYRN-UHFFFAOYSA-N

>  <energy_score>  (513) 
-18.67166

>  <tags>  (513) 
[]

>  <HIPPO ID>  (513) 
164764

>  <name>  (513) 
BZNUCVYVKVCYRN-UHFFFAOYSA-N

$$$$
URQKYSHGVMBZRO-LURJTMIESA-N
     RDKit          3D

 18 18  0  0  0  0  0  0  0  0999 V2000
   12.7095   12.1662   21.7612 C   0  0  0  0  0  0  0  0  0  0  0  0
   11.8350   11.0005   22.1300 C   0  0  0  0  0  0  0  0  0  0  0  0
   11.9858    9.8800   21.6430 O   0  0  0  0  0  0  0  0  0  0  0  0
   10.7363   11.2321   23.0917 C   0  0  0  0  0  0  0  0  0  0  0  0
   10.0645   10.1137   23.5424 C   0  0  0  0  0  0  0  0  0  0  0  0
    8.9433   10.3026   24.3225 C   0  0  0  0  0  0  0  0  0  0  0  0
    8.0019    8.9733   24.7005 Cl  0  0  0  0  0  0  0  0  0  0  0  0
    8.4942   11.5425   24.7575 C   0  0  0  0  0  0  0  0  0  0  0  0
    7.3219   11.5600   25.5581 N   0  0  0  0  0  0  0  0  0  0  0  0
    7.2782   12.1249   26.8153 C   0  0  0  0  0  0  0  0  0  0  0  0
    8.1287   12.9089   27.2424 O   0  0  0  0  0  0  0  0  0  0  0  0
    6.2011   11.5953   27.7615 C   0  0  1  0  0  0  0  0  0  0  0  0
    5.4874   12.7233   28.4819 C   0  0  0  0  0  0  0  0  0  0  0  0
    5.2385   10.6671   27.1656 C   0  0  0  0  0  0  0  0  0  0  0  0
    4.5132    9.8739   26.7312 N   0  0  0  0  0  0  0  0  0  0  0  0
    9.1402   12.6561   24.2619 C   0  0  0  0  0  0  0  0  0  0  0  0
    8.3809   14.1913   24.3825 Cl  0  0  0  0  0  0  0  0  0  0  0  0
   10.2658   12.5074   23.4354 C   0  0  0  0  0  0  0  0  0  0  0  0
  1  2  1  0
  2  3  2  0
  2  4  1  0
  4  5  2  0
  5  6  1  0
  6  7  1  0
  6  8  2  0
  8  9  1  0
  9 10  1  0
 10 11  2  0
 10 12  1  0
 12 13  1  6
 12 14  1  0
 14 15  3  0
  8 16  1  0
 16 17  1  0
 16 18  2  0
 18  4  1  0
M  END
>  <distance_score>  (514) 
0.778573

>  <ref_pdb>  (514) 
A1776a

>  <ref_mols>  (514) 
A1776a

>  <alias>  (514) 
None

>  <original SMILES>  (514) 
CC(=O)c1cc(Cl)c(NC(=O)[C@@H](C)C#N)c(Cl)c1

>  <inchikey>  (514) 
URQKYSHGVMBZRO-LURJTMIESA-N

>  <exports>  (514) 
['/opt/xchem-fragalysis-2/maxwin/2A_HIPPO/hippo/A71EV2A_10_recipes/Recipe_1LPVPY0_poses.sdf']

>  <original ID>  (514) 
URQKYSHGVMBZRO-LURJTMIESA-N

>  <energy_score>  (514) 
-12.628724

>  <tags>  (514) 
[]

>  <HIPPO ID>  (514) 
164825

>  <name>  (514) 
URQKYSHGVMBZRO-LURJTMIESA-N

$$$$
URQKYSHGVMBZRO-ZCFIWIBFSA-N
     RDKit          3D

 18 18  0  0  0  0  0  0  0  0999 V2000
   12.7153   12.1237   21.7563 C   0  0  0  0  0  0  0  0  0  0  0  0
   11.8243   10.9719   22.1441 C   0  0  0  0  0  0  0  0  0  0  0  0
   11.9538    9.8438   21.6695 O   0  0  0  0  0  0  0  0  0  0  0  0
   10.7270   11.2324   23.1021 C   0  0  0  0  0  0  0  0  0  0  0  0
   10.2755   12.5263   23.3953 C   0  0  0  0  0  0  0  0  0  0  0  0
    9.1321   12.7155   24.1787 C   0  0  0  0  0  0  0  0  0  0  0  0
    8.4046   14.2697   24.2752 Cl  0  0  0  0  0  0  0  0  0  0  0  0
    8.4476   11.6267   24.6808 C   0  0  0  0  0  0  0  0  0  0  0  0
    7.2011   11.7636   25.3371 N   0  0  0  0  0  0  0  0  0  0  0  0
    7.1371   12.0764   26.6827 C   0  0  0  0  0  0  0  0  0  0  0  0
    8.0823   12.5561   27.3085 O   0  0  0  0  0  0  0  0  0  0  0  0
    5.7733   11.8338   27.3304 C   0  0  2  0  0  0  0  0  0  0  0  0
    5.8865   11.8250   28.8487 C   0  0  0  0  0  0  0  0  0  0  0  0
    5.1766   10.5578   26.9194 C   0  0  0  0  0  0  0  0  0  0  0  0
    4.6784    9.5643   26.5876 N   0  0  0  0  0  0  0  0  0  0  0  0
    8.8948   10.3588   24.3365 C   0  0  0  0  0  0  0  0  0  0  0  0
    7.9314    9.0538   24.7642 Cl  0  0  0  0  0  0  0  0  0  0  0  0
   10.0367   10.1348   23.5906 C   0  0  0  0  0  0  0  0  0  0  0  0
  1  2  1  0
  2  3  2  0
  2  4  1  0
  4  5  2  0
  5  6  1  0
  6  7  1  0
  6  8  2  0
  8  9  1  0
  9 10  1  0
 10 11  2  0
 10 12  1  0
 12 13  1  1
 12 14  1  0
 14 15  3  0
  8 16  1  0
 16 17  1  0
 16 18  2  0
 18  4  1  0
M  END
>  <distance_score>  (515) 
1.005639

>  <ref_pdb>  (515) 
A1776a

>  <ref_mols>  (515) 
A1776a

>  <alias>  (515) 
None

>  <original SMILES>  (515) 
CC(=O)c1cc(Cl)c(NC(=O)[C@H](C)C#N)c(Cl)c1

>  <inchikey>  (515) 
URQKYSHGVMBZRO-ZCFIWIBFSA-N

>  <exports>  (515) 
['/opt/xchem-fragalysis-2/maxwin/2A_HIPPO/hippo/A71EV2A_10_recipes/Recipe_1LPVPY0_poses.sdf']

>  <original ID>  (515) 
URQKYSHGVMBZRO-ZCFIWIBFSA-N

>  <energy_score>  (515) 
-16.101893

>  <tags>  (515) 
[]

>  <HIPPO ID>  (515) 
164826

>  <name>  (515) 
URQKYSHGVMBZRO-ZCFIWIBFSA-N

$$$$
BCBDPMJKEYVZNN-SECBINFHSA-N
     RDKit          3D

 18 18  0  0  0  0  0  0  0  0999 V2000
   12.7165   12.1402   21.7532 C   0  0  0  0  0  0  0  0  0  0  0  0
   11.8390   10.9770   22.1310 C   0  0  0  0  0  0  0  0  0  0  0  0
   11.9753    9.8565   21.6405 O   0  0  0  0  0  0  0  0  0  0  0  0
   10.7506   11.2129   23.1040 C   0  0  0  0  0  0  0  0  0  0  0  0
   10.2949   12.4943   23.4419 C   0  0  0  0  0  0  0  0  0  0  0  0
    9.1707   12.6563   24.2635 C   0  0  0  0  0  0  0  0  0  0  0  0
    8.4139   14.1962   24.3642 Cl  0  0  0  0  0  0  0  0  0  0  0  0
    8.5103   11.5507   24.7601 C   0  0  0  0  0  0  0  0  0  0  0  0
    7.3122   11.6106   25.5049 N   0  0  0  0  0  0  0  0  0  0  0  0
    7.1766   12.2584   26.7169 C   0  0  0  0  0  0  0  0  0  0  0  0
    8.0492   12.9117   27.2789 O   0  0  0  0  0  0  0  0  0  0  0  0
    5.7794   12.0144   27.3191 C   0  0  2  0  0  0  0  0  0  0  0  0
    4.7673   12.6941   26.4775 N   0  0  0  0  0  0  0  0  0  0  0  0
    5.7620   12.4703   28.7786 C   0  0  0  0  0  0  0  0  0  0  0  0
    4.2870   11.9174   29.6171 Cl  0  0  0  0  0  0  0  0  0  0  0  0
    8.9468   10.3026   24.3404 C   0  0  0  0  0  0  0  0  0  0  0  0
    7.9746    8.9924   24.7180 Cl  0  0  0  0  0  0  0  0  0  0  0  0
   10.0698   10.1008   23.5641 C   0  0  0  0  0  0  0  0  0  0  0  0
  1  2  1  0
  2  3  2  0
  2  4  1  0
  4  5  2  0
  5  6  1  0
  6  7  1  0
  6  8  2  0
  8  9  1  0
  9 10  1  0
 10 11  2  0
 10 12  1  0
 12 13  1  6
 12 14  1  0
 14 15  1  0
  8 16  1  0
 16 17  1  0
 16 18  2  0
 18  4  1  0
M  END
>  <distance_score>  (516) 
0.743969

>  <ref_pdb>  (516) 
A1776a

>  <ref_mols>  (516) 
A1776a

>  <alias>  (516) 
None

>  <original SMILES>  (516) 
CC(=O)c1cc(Cl)c(NC(=O)[C@H](N)CCl)c(Cl)c1

>  <inchikey>  (516) 
BCBDPMJKEYVZNN-SECBINFHSA-N

>  <exports>  (516) 
['/opt/xchem-fragalysis-2/maxwin/2A_HIPPO/hippo/A71EV2A_10_recipes/Recipe_1LPVPY0_poses.sdf']

>  <original ID>  (516) 
BCBDPMJKEYVZNN-SECBINFHSA-N

>  <energy_score>  (516) 
-17.107738

>  <tags>  (516) 
[]

>  <HIPPO ID>  (516) 
165022

>  <name>  (516) 
BCBDPMJKEYVZNN-SECBINFHSA-N

$$$$
BCBDPMJKEYVZNN-SECBINFHSA-N
     RDKit          3D

 18 18  0  0  0  0  0  0  0  0999 V2000
   12.6802   12.1276   21.7842 C   0  0  0  0  0  0  0  0  0  0  0  0
   11.7907   10.9706   22.1642 C   0  0  0  0  0  0  0  0  0  0  0  0
   11.9277    9.8439   21.6880 O   0  0  0  0  0  0  0  0  0  0  0  0
   10.6862   11.2245   23.1168 C   0  0  0  0  0  0  0  0  0  0  0  0
   10.2433   12.5168   23.4281 C   0  0  0  0  0  0  0  0  0  0  0  0
    9.1098   12.7044   24.2274 C   0  0  0  0  0  0  0  0  0  0  0  0
    8.3887   14.2596   24.3365 Cl  0  0  0  0  0  0  0  0  0  0  0  0
    8.4261   11.6157   24.7300 C   0  0  0  0  0  0  0  0  0  0  0  0
    7.2304   11.7384   25.4784 N   0  0  0  0  0  0  0  0  0  0  0  0
    7.2679   12.1556   26.8000 C   0  0  0  0  0  0  0  0  0  0  0  0
    8.2342   12.6931   27.3302 O   0  0  0  0  0  0  0  0  0  0  0  0
    5.9654   11.8061   27.5497 C   0  0  2  0  0  0  0  0  0  0  0  0
    4.8573   12.6305   27.0366 N   0  0  0  0  0  0  0  0  0  0  0  0
    6.1301   11.9148   29.0686 C   0  0  0  0  0  0  0  0  0  0  0  0
    6.2558   13.6008   29.6555 Cl  0  0  0  0  0  0  0  0  0  0  0  0
    8.8509   10.3515   24.3495 C   0  0  0  0  0  0  0  0  0  0  0  0
    7.8729    9.0569   24.7749 Cl  0  0  0  0  0  0  0  0  0  0  0  0
    9.9825   10.1268   23.5867 C   0  0  0  0  0  0  0  0  0  0  0  0
  1  2  1  0
  2  3  2  0
  2  4  1  0
  4  5  2  0
  5  6  1  0
  6  7  1  0
  6  8  2  0
  8  9  1  0
  9 10  1  0
 10 11  2  0
 10 12  1  0
 12 13  1  6
 12 14  1  0
 14 15  1  0
  8 16  1  0
 16 17  1  0
 16 18  2  0
 18  4  1  0
M  END
>  <distance_score>  (517) 
0.981106

>  <ref_pdb>  (517) 
A1776a

>  <ref_mols>  (517) 
A1776a

>  <alias>  (517) 
None

>  <original SMILES>  (517) 
CC(=O)c1cc(Cl)c(NC(=O)[C@H](N)CCl)c(Cl)c1

>  <inchikey>  (517) 
BCBDPMJKEYVZNN-SECBINFHSA-N

>  <exports>  (517) 
['/opt/xchem-fragalysis-2/maxwin/2A_HIPPO/hippo/A71EV2A_10_recipes/Recipe_1LPVPY0_poses.sdf']

>  <original ID>  (517) 
BCBDPMJKEYVZNN-SECBINFHSA-N

>  <energy_score>  (517) 
-19.23681

>  <tags>  (517) 
[]

>  <HIPPO ID>  (517) 
165023

>  <name>  (517) 
BCBDPMJKEYVZNN-SECBINFHSA-N

$$$$
SKLUWKYNZNXSLX-UHFFFAOYSA-N
     RDKit          3D

 12 12  0  0  0  0  0  0  0  0999 V2000
    5.7801   12.0703   27.3831 C   0  0  0  0  0  0  0  0  0  0  0  0
    7.1783   12.1199   26.8213 C   0  0  0  0  0  0  0  0  0  0  0  0
    7.9844   12.9583   27.2134 O   0  0  0  0  0  0  0  0  0  0  0  0
    7.4253   11.1007   25.9258 N   0  0  0  0  0  0  0  0  0  0  0  0
    8.5495   10.9489   25.0965 C   0  0  0  0  0  0  0  0  0  0  0  0
    8.6658    9.7427   24.4010 C   0  0  0  0  0  0  0  0  0  0  0  0
    9.7036    9.5297   23.4974 C   0  0  0  0  0  0  0  0  0  0  0  0
   10.6186   10.5498   23.2656 C   0  0  0  0  0  0  0  0  0  0  0  0
   11.6363   10.4007   22.2181 C   0  0  0  0  0  0  0  0  0  0  0  0
   11.7732    9.3558   21.5966 O   0  0  0  0  0  0  0  0  0  0  0  0
   10.5336   11.7490   23.9693 C   0  0  0  0  0  0  0  0  0  0  0  0
    9.5036   11.9432   24.8930 C   0  0  0  0  0  0  0  0  0  0  0  0
  1  2  1  0
  2  3  2  0
  2  4  1  0
  4  5  1  0
  5  6  2  0
  6  7  1  0
  7  8  2  0
  8  9  1  0
  9 10  2  0
  8 11  1  0
 11 12  2  0
 12  5  1  0
M  END
>  <distance_score>  (518) 
0.427469

>  <ref_pdb>  (518) 
A1776a

>  <ref_mols>  (518) 
A1776a

>  <alias>  (518) 
None

>  <original SMILES>  (518) 
CC(=O)Nc1ccc(C=O)cc1

>  <inchikey>  (518) 
SKLUWKYNZNXSLX-UHFFFAOYSA-N

>  <exports>  (518) 
['/opt/xchem-fragalysis-2/maxwin/2A_HIPPO/hippo/A71EV2A_10_recipes/Recipe_1LPUPHX_poses.sdf', '/opt/xchem-fragalysis-2/maxwin/2A_HIPPO/hippo/A71EV2A_10_recipes/Recipe_1LPVPY0_poses.sdf']

>  <original ID>  (518) 
SKLUWKYNZNXSLX-UHFFFAOYSA-N

>  <energy_score>  (518) 
-11.524796

>  <tags>  (518) 
['Syndirella scaffold']

>  <HIPPO ID>  (518) 
167343

>  <name>  (518) 
SKLUWKYNZNXSLX-UHFFFAOYSA-N

$$$$
HNFDWHVXJHQJBI-UHFFFAOYSA-N
     RDKit          3D

 13 13  0  0  0  0  0  0  0  0999 V2000
   11.7834    9.3633   21.5895 O   0  0  0  0  0  0  0  0  0  0  0  0
   11.6457   10.4018   22.2215 C   0  0  0  0  0  0  0  0  0  0  0  0
   10.6296   10.5388   23.2722 C   0  0  0  0  0  0  0  0  0  0  0  0
   10.5568   11.7218   24.0055 C   0  0  0  0  0  0  0  0  0  0  0  0
    9.5161   11.9135   24.9179 C   0  0  0  0  0  0  0  0  0  0  0  0
    8.5378   10.9347   25.0726 C   0  0  0  0  0  0  0  0  0  0  0  0
    7.3880   11.0988   25.8550 N   0  0  0  0  0  0  0  0  0  0  0  0
    7.1031   12.1077   26.7517 C   0  0  0  0  0  0  0  0  0  0  0  0
    7.8895   12.9369   27.1989 O   0  0  0  0  0  0  0  0  0  0  0  0
    5.6314   12.0706   27.1802 C   0  0  0  0  0  0  0  0  0  0  0  0
    5.0299   10.7871   27.0279 O   0  0  0  0  0  0  0  0  0  0  0  0
    8.6500    9.7391   24.3604 C   0  0  0  0  0  0  0  0  0  0  0  0
    9.6994    9.5263   23.4720 C   0  0  0  0  0  0  0  0  0  0  0  0
  1  2  2  0
  2  3  1  0
  3  4  2  0
  4  5  1  0
  5  6  2  0
  6  7  1  0
  7  8  1  0
  8  9  2  0
  8 10  1  0
 10 11  1  0
  6 12  1  0
 12 13  2  0
 13  3  1  0
M  END
>  <distance_score>  (519) 
0.414513

>  <ref_pdb>  (519) 
A1776a

>  <ref_mols>  (519) 
A1776a

>  <alias>  (519) 
None

>  <original SMILES>  (519) 
O=Cc1ccc(NC(=O)CO)cc1

>  <inchikey>  (519) 
HNFDWHVXJHQJBI-UHFFFAOYSA-N

>  <exports>  (519) 
['/opt/xchem-fragalysis-2/maxwin/2A_HIPPO/hippo/A71EV2A_10_recipes/Recipe_1LPUPHX_poses.sdf', '/opt/xchem-fragalysis-2/maxwin/2A_HIPPO/hippo/A71EV2A_10_recipes/Recipe_1LPVPY0_poses.sdf']

>  <original ID>  (519) 
HNFDWHVXJHQJBI-UHFFFAOYSA-N

>  <energy_score>  (519) 
-12.384331

>  <tags>  (519) 
[]

>  <HIPPO ID>  (519) 
167350

>  <name>  (519) 
HNFDWHVXJHQJBI-UHFFFAOYSA-N

$$$$
WECHHDJTILFYQT-UHFFFAOYSA-N
     RDKit          3D

 13 13  0  0  0  0  0  0  0  0999 V2000
    5.6241   11.8077   27.3948 C   0  0  0  0  0  0  0  0  0  0  0  0
    7.0272   11.9448   26.8634 C   0  0  0  0  0  0  0  0  0  0  0  0
    7.7689   12.8313   27.2784 O   0  0  0  0  0  0  0  0  0  0  0  0
    7.3573   10.9558   25.9580 N   0  0  0  0  0  0  0  0  0  0  0  0
    8.4935   10.9183   25.1333 C   0  0  0  0  0  0  0  0  0  0  0  0
    8.7287    9.7548   24.3965 C   0  0  0  0  0  0  0  0  0  0  0  0
    9.7961    9.6734   23.5005 C   0  0  0  0  0  0  0  0  0  0  0  0
   10.6226   10.7789   23.3123 C   0  0  0  0  0  0  0  0  0  0  0  0
   11.6709   10.7425   22.2636 C   0  0  0  0  0  0  0  0  0  0  0  0
   12.4074   12.0320   21.9440 C   0  0  0  0  0  0  0  0  0  0  0  0
   11.8772    9.6942   21.6536 O   0  0  0  0  0  0  0  0  0  0  0  0
   10.4028   11.9294   24.0656 C   0  0  0  0  0  0  0  0  0  0  0  0
    9.3514   11.9989   24.9760 C   0  0  0  0  0  0  0  0  0  0  0  0
  1  2  1  0
  2  3  2  0
  2  4  1  0
  4  5  1  0
  5  6  2  0
  6  7  1  0
  7  8  2  0
  8  9  1  0
  9 10  1  0
  9 11  2  0
  8 12  1  0
 12 13  2  0
 13  5  1  0
M  END
>  <distance_score>  (520) 
0.903008

>  <ref_pdb>  (520) 
A1776a

>  <ref_mols>  (520) 
A1776a

>  <alias>  (520) 
None

>  <original SMILES>  (520) 
CC(=O)Nc1ccc(C(C)=O)cc1

>  <inchikey>  (520) 
WECHHDJTILFYQT-UHFFFAOYSA-N

>  <exports>  (520) 
['/opt/xchem-fragalysis-2/maxwin/2A_HIPPO/hippo/A71EV2A_10_recipes/Recipe_1LPUPHX_poses.sdf', '/opt/xchem-fragalysis-2/maxwin/2A_HIPPO/hippo/A71EV2A_10_recipes/Recipe_1LPVPY0_poses.sdf']

>  <original ID>  (520) 
WECHHDJTILFYQT-UHFFFAOYSA-N

>  <energy_score>  (520) 
-8.78651

>  <tags>  (520) 
[]

>  <HIPPO ID>  (520) 
167354

>  <name>  (520) 
WECHHDJTILFYQT-UHFFFAOYSA-N

$$$$
HOQXRQQAQAEPFI-UHFFFAOYSA-N
     RDKit          3D

 13 13  0  0  0  0  0  0  0  0999 V2000
   11.8068    9.3620   21.5712 O   0  0  0  0  0  0  0  0  0  0  0  0
   11.6655   10.4055   22.1939 C   0  0  0  0  0  0  0  0  0  0  0  0
   10.6488   10.5462   23.2425 C   0  0  0  0  0  0  0  0  0  0  0  0
    9.7478    9.5147   23.4771 C   0  0  0  0  0  0  0  0  0  0  0  0
    8.7065    9.7187   24.3765 C   0  0  0  0  0  0  0  0  0  0  0  0
    8.5724   10.9280   25.0625 C   0  0  0  0  0  0  0  0  0  0  0  0
    7.4355   11.0729   25.8686 N   0  0  0  0  0  0  0  0  0  0  0  0
    7.1381   12.0918   26.7498 C   0  0  0  0  0  0  0  0  0  0  0  0
    7.9262   12.9511   27.1421 O   0  0  0  0  0  0  0  0  0  0  0  0
    5.6873   12.1100   27.2007 C   0  0  0  0  0  0  0  0  0  0  0  0
    5.0168   10.4644   27.3323 Cl  0  0  0  0  0  0  0  0  0  0  0  0
    9.5145   11.9335   24.8615 C   0  0  0  0  0  0  0  0  0  0  0  0
   10.5491   11.7473   23.9419 C   0  0  0  0  0  0  0  0  0  0  0  0
  1  2  2  0
  2  3  1  0
  3  4  2  0
  4  5  1  0
  5  6  2  0
  6  7  1  0
  7  8  1  0
  8  9  2  0
  8 10  1  0
 10 11  1  0
  6 12  1  0
 12 13  2  0
 13  3  1  0
M  END
>  <distance_score>  (521) 
0.404792

>  <ref_pdb>  (521) 
A1776a

>  <ref_mols>  (521) 
A1776a

>  <alias>  (521) 
None

>  <original SMILES>  (521) 
O=Cc1ccc(NC(=O)CCl)cc1

>  <inchikey>  (521) 
HOQXRQQAQAEPFI-UHFFFAOYSA-N

>  <exports>  (521) 
['/opt/xchem-fragalysis-2/maxwin/2A_HIPPO/hippo/A71EV2A_10_recipes/Recipe_1LPUPHX_poses.sdf', '/opt/xchem-fragalysis-2/maxwin/2A_HIPPO/hippo/A71EV2A_10_recipes/Recipe_1LPVPY0_poses.sdf']

>  <original ID>  (521) 
HOQXRQQAQAEPFI-UHFFFAOYSA-N

>  <energy_score>  (521) 
-7.902107

>  <tags>  (521) 
[]

>  <HIPPO ID>  (521) 
167361

>  <name>  (521) 
HOQXRQQAQAEPFI-UHFFFAOYSA-N

$$$$
MIOFTECZDPLDCS-UHFFFAOYSA-N
     RDKit          3D

 13 13  0  0  0  0  0  0  0  0999 V2000
   11.7862    9.3453   21.5800 O   0  0  0  0  0  0  0  0  0  0  0  0
   11.6532   10.3901   22.2021 C   0  0  0  0  0  0  0  0  0  0  0  0
   10.6371   10.5392   23.2503 C   0  0  0  0  0  0  0  0  0  0  0  0
   10.5466   11.7428   23.9444 C   0  0  0  0  0  0  0  0  0  0  0  0
    9.5134   11.9394   24.8630 C   0  0  0  0  0  0  0  0  0  0  0  0
    8.5621   10.9429   25.0720 C   0  0  0  0  0  0  0  0  0  0  0  0
    7.4257   11.1035   25.8840 N   0  0  0  0  0  0  0  0  0  0  0  0
    7.1590   12.1549   26.7426 C   0  0  0  0  0  0  0  0  0  0  0  0
    7.9800   12.9840   27.1280 O   0  0  0  0  0  0  0  0  0  0  0  0
    5.7190   12.1723   27.2310 C   0  0  0  0  0  0  0  0  0  0  0  0
    5.6559   11.8608   29.0171 S   0  0  0  0  0  0  0  0  0  0  0  0
    8.6875    9.7301   24.3902 C   0  0  0  0  0  0  0  0  0  0  0  0
    9.7278    9.5156   23.4901 C   0  0  0  0  0  0  0  0  0  0  0  0
  1  2  2  0
  2  3  1  0
  3  4  2  0
  4  5  1  0
  5  6  2  0
  6  7  1  0
  7  8  1  0
  8  9  2  0
  8 10  1  0
 10 11  1  0
  6 12  1  0
 12 13  2  0
 13  3  1  0
M  END
>  <distance_score>  (522) 
0.414444

>  <ref_pdb>  (522) 
A1776a

>  <ref_mols>  (522) 
A1776a

>  <alias>  (522) 
None

>  <original SMILES>  (522) 
O=Cc1ccc(NC(=O)CS)cc1

>  <inchikey>  (522) 
MIOFTECZDPLDCS-UHFFFAOYSA-N

>  <exports>  (522) 
['/opt/xchem-fragalysis-2/maxwin/2A_HIPPO/hippo/A71EV2A_10_recipes/Recipe_1LPUPHX_poses.sdf', '/opt/xchem-fragalysis-2/maxwin/2A_HIPPO/hippo/A71EV2A_10_recipes/Recipe_1LPVPY0_poses.sdf']

>  <original ID>  (522) 
MIOFTECZDPLDCS-UHFFFAOYSA-N

>  <energy_score>  (522) 
-13.956074

>  <tags>  (522) 
[]

>  <HIPPO ID>  (522) 
167362

>  <name>  (522) 
MIOFTECZDPLDCS-UHFFFAOYSA-N

$$$$
MFYWNHWBQSXPDY-UHFFFAOYSA-N
     RDKit          3D

 13 13  0  0  0  0  0  0  0  0999 V2000
    5.0104   13.0523   27.4102 N   0  0  0  0  0  0  0  0  0  0  0  0
    5.7790   11.8063   27.4775 C   0  0  0  0  0  0  0  0  0  0  0  0
    7.1733   11.9821   26.8491 C   0  0  0  0  0  0  0  0  0  0  0  0
    7.9315   12.8903   27.1803 O   0  0  0  0  0  0  0  0  0  0  0  0
    7.4585   10.9830   25.9345 N   0  0  0  0  0  0  0  0  0  0  0  0
    8.5710   10.8897   25.0825 C   0  0  0  0  0  0  0  0  0  0  0  0
    8.7185    9.6920   24.3779 C   0  0  0  0  0  0  0  0  0  0  0  0
    9.7551    9.5131   23.4684 C   0  0  0  0  0  0  0  0  0  0  0  0
   10.6392   10.5594   23.2387 C   0  0  0  0  0  0  0  0  0  0  0  0
   11.6622   10.4320   22.1944 C   0  0  0  0  0  0  0  0  0  0  0  0
   11.8137    9.3908   21.5691 O   0  0  0  0  0  0  0  0  0  0  0  0
   10.5197   11.7552   23.9444 C   0  0  0  0  0  0  0  0  0  0  0  0
    9.4890   11.9160   24.8749 C   0  0  0  0  0  0  0  0  0  0  0  0
  1  2  1  0
  2  3  1  0
  3  4  2  0
  3  5  1  0
  5  6  1  0
  6  7  2  0
  7  8  1  0
  8  9  2  0
  9 10  1  0
 10 11  2  0
  9 12  1  0
 12 13  2  0
 13  6  1  0
M  END
>  <distance_score>  (523) 
0.420577

>  <ref_pdb>  (523) 
A1776a

>  <ref_mols>  (523) 
A1776a

>  <alias>  (523) 
None

>  <original SMILES>  (523) 
NCC(=O)Nc1ccc(C=O)cc1

>  <inchikey>  (523) 
MFYWNHWBQSXPDY-UHFFFAOYSA-N

>  <exports>  (523) 
['/opt/xchem-fragalysis-2/maxwin/2A_HIPPO/hippo/A71EV2A_10_recipes/Recipe_1LPUPHX_poses.sdf', '/opt/xchem-fragalysis-2/maxwin/2A_HIPPO/hippo/A71EV2A_10_recipes/Recipe_1LPVPY0_poses.sdf']

>  <original ID>  (523) 
MFYWNHWBQSXPDY-UHFFFAOYSA-N

>  <energy_score>  (523) 
-17.751946

>  <tags>  (523) 
[]

>  <HIPPO ID>  (523) 
167366

>  <name>  (523) 
MFYWNHWBQSXPDY-UHFFFAOYSA-N

$$$$
CGJJSDDPEALLTP-UHFFFAOYSA-N
     RDKit          3D

 14 14  0  0  0  0  0  0  0  0999 V2000
    5.8776   12.2882   27.6042 C   0  0  0  0  0  0  0  0  0  0  0  0
    7.2475   12.1748   26.9669 C   0  0  0  0  0  0  0  0  0  0  0  0
    8.1120   13.0003   27.2648 O   0  0  0  0  0  0  0  0  0  0  0  0
    7.4123   11.0745   26.1015 N   0  0  0  0  0  0  0  0  0  0  0  0
    6.3806   10.1074   26.1010 N   0  0  0  0  0  0  0  0  0  0  0  0
    8.5049   10.9230   25.1775 C   0  0  0  0  0  0  0  0  0  0  0  0
    8.6694    9.7365   24.4449 C   0  0  0  0  0  0  0  0  0  0  0  0
    9.7019    9.5700   23.5170 C   0  0  0  0  0  0  0  0  0  0  0  0
   10.5903   10.6107   23.2755 C   0  0  0  0  0  0  0  0  0  0  0  0
   11.6390   10.4296   22.2479 C   0  0  0  0  0  0  0  0  0  0  0  0
   12.3214   11.5473   21.8386 N   0  0  0  0  0  0  0  0  0  0  0  0
   11.8502    9.3436   21.7263 O   0  0  0  0  0  0  0  0  0  0  0  0
   10.4609   11.7928   23.9986 C   0  0  0  0  0  0  0  0  0  0  0  0
    9.4296   11.9450   24.9351 C   0  0  0  0  0  0  0  0  0  0  0  0
  1  2  1  0
  2  3  2  0
  2  4  1  0
  4  5  1  0
  4  6  1  0
  6  7  2  0
  7  8  1  0
  8  9  2  0
  9 10  1  0
 10 11  1  0
 10 12  2  0
  9 13  1  0
 13 14  2  0
 14  6  1  0
M  END
>  <distance_score>  (524) 
0.833958

>  <ref_pdb>  (524) 
A1776a

>  <ref_mols>  (524) 
A1776a

>  <alias>  (524) 
None

>  <original SMILES>  (524) 
CC(=O)N(N)c1ccc(C(N)=O)cc1

>  <inchikey>  (524) 
CGJJSDDPEALLTP-UHFFFAOYSA-N

>  <exports>  (524) 
['/opt/xchem-fragalysis-2/maxwin/2A_HIPPO/hippo/A71EV2A_10_recipes/Recipe_1LPVPY0_poses.sdf']

>  <original ID>  (524) 
CGJJSDDPEALLTP-UHFFFAOYSA-N

>  <energy_score>  (524) 
-20.041691

>  <tags>  (524) 
[]

>  <HIPPO ID>  (524) 
167370

>  <name>  (524) 
CGJJSDDPEALLTP-UHFFFAOYSA-N

$$$$
TWEJREWGNGPHPS-UHFFFAOYSA-N
     RDKit          3D

 14 14  0  0  0  0  0  0  0  0999 V2000
    4.8311   12.2413   26.5921 N   0  0  0  0  0  0  0  0  0  0  0  0
    5.8660   12.4000   27.4648 C   0  0  0  0  0  0  0  0  0  0  0  0
    5.6880   12.6397   28.6473 O   0  0  0  0  0  0  0  0  0  0  0  0
    7.2754   12.3028   26.8565 C   0  0  0  0  0  0  0  0  0  0  0  0
    8.1130   13.1237   27.1996 O   0  0  0  0  0  0  0  0  0  0  0  0
    7.4335   11.2421   25.9832 N   0  0  0  0  0  0  0  0  0  0  0  0
    8.5346   11.0253   25.1343 C   0  0  0  0  0  0  0  0  0  0  0  0
    9.5199   11.9843   24.9003 C   0  0  0  0  0  0  0  0  0  0  0  0
   10.5371   11.7461   23.9748 C   0  0  0  0  0  0  0  0  0  0  0  0
   10.5804   10.5356   23.2916 C   0  0  0  0  0  0  0  0  0  0  0  0
   11.5932   10.3501   22.2443 C   0  0  0  0  0  0  0  0  0  0  0  0
   11.7043    9.2977   21.6322 O   0  0  0  0  0  0  0  0  0  0  0  0
    9.6324    9.5492   23.5468 C   0  0  0  0  0  0  0  0  0  0  0  0
    8.6053    9.8062   24.4569 C   0  0  0  0  0  0  0  0  0  0  0  0
  1  2  1  0
  2  3  2  0
  2  4  1  0
  4  5  2  0
  4  6  1  0
  6  7  1  0
  7  8  2  0
  8  9  1  0
  9 10  2  0
 10 11  1  0
 11 12  2  0
 10 13  1  0
 13 14  2  0
 14  7  1  0
M  END
>  <distance_score>  (525) 
0.491745

>  <ref_pdb>  (525) 
A1776a

>  <ref_mols>  (525) 
A1776a

>  <alias>  (525) 
None

>  <original SMILES>  (525) 
NC(=O)C(=O)Nc1ccc(C=O)cc1

>  <inchikey>  (525) 
TWEJREWGNGPHPS-UHFFFAOYSA-N

>  <exports>  (525) 
['/opt/xchem-fragalysis-2/maxwin/2A_HIPPO/hippo/A71EV2A_10_recipes/Recipe_1LPVPY0_poses.sdf']

>  <original ID>  (525) 
TWEJREWGNGPHPS-UHFFFAOYSA-N

>  <energy_score>  (525) 
-24.19136

>  <tags>  (525) 
[]

>  <HIPPO ID>  (525) 
167374

>  <name>  (525) 
TWEJREWGNGPHPS-UHFFFAOYSA-N

$$$$
KLFBJGDVZVKVJN-UHFFFAOYSA-N
     RDKit          3D

 14 14  0  0  0  0  0  0  0  0999 V2000
    5.8177   12.8898   28.5758 C   0  0  0  0  0  0  0  0  0  0  0  0
    5.9329   11.8951   27.4592 C   0  0  0  0  0  0  0  0  0  0  0  0
    5.0437   11.0795   27.2241 O   0  0  0  0  0  0  0  0  0  0  0  0
    7.1483   11.9522   26.7858 N   0  0  0  0  0  0  0  0  0  0  0  0
    7.2241   11.0722   25.7033 N   0  0  0  0  0  0  0  0  0  0  0  0
    8.4458   10.9335   25.0312 C   0  0  0  0  0  0  0  0  0  0  0  0
    9.3118   11.9999   24.7854 C   0  0  0  0  0  0  0  0  0  0  0  0
   10.3899   11.8524   23.9058 C   0  0  0  0  0  0  0  0  0  0  0  0
   10.6303   10.6274   23.2779 C   0  0  0  0  0  0  0  0  0  0  0  0
   11.6417   10.4716   22.2075 C   0  0  0  0  0  0  0  0  0  0  0  0
   12.4469   11.5465   21.9359 N   0  0  0  0  0  0  0  0  0  0  0  0
   11.7494    9.4352   21.5662 O   0  0  0  0  0  0  0  0  0  0  0  0
    9.8106    9.5407   23.5634 C   0  0  0  0  0  0  0  0  0  0  0  0
    8.7231    9.7072   24.4167 C   0  0  0  0  0  0  0  0  0  0  0  0
  1  2  1  0
  2  3  2  0
  2  4  1  0
  4  5  1  0
  5  6  1  0
  6  7  2  0
  7  8  1  0
  8  9  2  0
  9 10  1  0
 10 11  1  0
 10 12  2  0
  9 13  1  0
 13 14  2  0
 14  6  1  0
M  END
>  <distance_score>  (526) 
0.513263

>  <ref_pdb>  (526) 
A1776a

>  <ref_mols>  (526) 
A1776a

>  <alias>  (526) 
None

>  <original SMILES>  (526) 
CC(=O)NNc1ccc(C(N)=O)cc1

>  <inchikey>  (526) 
KLFBJGDVZVKVJN-UHFFFAOYSA-N

>  <exports>  (526) 
['/opt/xchem-fragalysis-2/maxwin/2A_HIPPO/hippo/A71EV2A_10_recipes/Recipe_1LPVPY0_poses.sdf']

>  <original ID>  (526) 
KLFBJGDVZVKVJN-UHFFFAOYSA-N

>  <energy_score>  (526) 
-37.676891

>  <tags>  (526) 
[]

>  <HIPPO ID>  (526) 
167382

>  <name>  (526) 
KLFBJGDVZVKVJN-UHFFFAOYSA-N

$$$$
XUQMKUAJGHLWEP-UHFFFAOYSA-N
     RDKit          3D

 14 14  0  0  0  0  0  0  0  0999 V2000
    5.6388   11.9882   27.4645 C   0  0  0  0  0  0  0  0  0  0  0  0
    7.0205   12.1462   26.8869 C   0  0  0  0  0  0  0  0  0  0  0  0
    7.7641   13.0486   27.2600 O   0  0  0  0  0  0  0  0  0  0  0  0
    7.3410   11.1455   25.9952 N   0  0  0  0  0  0  0  0  0  0  0  0
    8.4556   11.1153   25.1453 C   0  0  0  0  0  0  0  0  0  0  0  0
    9.2296   12.2283   24.8525 C   0  0  0  0  0  0  0  0  0  0  0  0
   10.2730   12.1355   23.9265 C   0  0  0  0  0  0  0  0  0  0  0  0
   10.5983   10.9255   23.3086 C   0  0  0  0  0  0  0  0  0  0  0  0
   11.6784   10.8871   22.2734 C   0  0  0  0  0  0  0  0  0  0  0  0
   12.4321   12.1664   21.9796 C   0  0  0  0  0  0  0  0  0  0  0  0
   11.9341    9.8649   21.6405 O   0  0  0  0  0  0  0  0  0  0  0  0
    9.8394    9.8074   23.6464 C   0  0  0  0  0  0  0  0  0  0  0  0
   10.1324    8.2474   23.0365 Cl  0  0  0  0  0  0  0  0  0  0  0  0
    8.7575    9.9110   24.5261 C   0  0  0  0  0  0  0  0  0  0  0  0
  1  2  1  0
  2  3  2  0
  2  4  1  0
  4  5  1  0
  5  6  2  0
  6  7  1  0
  7  8  2  0
  8  9  1  0
  9 10  1  0
  9 11  2  0
  8 12  1  0
 12 13  1  0
 12 14  2  0
 14  5  1  0
M  END
>  <distance_score>  (527) 
0.616504

>  <ref_pdb>  (527) 
A1776a

>  <ref_mols>  (527) 
A1776a

>  <alias>  (527) 
None

>  <original SMILES>  (527) 
CC(=O)Nc1ccc(C(C)=O)c(Cl)c1

>  <inchikey>  (527) 
XUQMKUAJGHLWEP-UHFFFAOYSA-N

>  <exports>  (527) 
['/opt/xchem-fragalysis-2/maxwin/2A_HIPPO/hippo/A71EV2A_10_recipes/Recipe_1LPVPY0_poses.sdf']

>  <original ID>  (527) 
XUQMKUAJGHLWEP-UHFFFAOYSA-N

>  <energy_score>  (527) 
-16.980275

>  <tags>  (527) 
[]

>  <HIPPO ID>  (527) 
167401

>  <name>  (527) 
XUQMKUAJGHLWEP-UHFFFAOYSA-N

$$$$
WBJOQROPHCHERE-UHFFFAOYSA-N
     RDKit          3D

 14 14  0  0  0  0  0  0  0  0999 V2000
   12.4242   12.0220   21.9246 C   0  0  0  0  0  0  0  0  0  0  0  0
   11.6896   10.7317   22.2491 C   0  0  0  0  0  0  0  0  0  0  0  0
   11.8897    9.6839   21.6366 O   0  0  0  0  0  0  0  0  0  0  0  0
   10.6467   10.7684   23.3025 C   0  0  0  0  0  0  0  0  0  0  0  0
    9.8036    9.6737   23.4810 C   0  0  0  0  0  0  0  0  0  0  0  0
    8.7330    9.7656   24.3724 C   0  0  0  0  0  0  0  0  0  0  0  0
    8.5114   10.9295   25.1123 C   0  0  0  0  0  0  0  0  0  0  0  0
    7.3597   10.9912   25.9151 N   0  0  0  0  0  0  0  0  0  0  0  0
    7.0400   11.9930   26.8191 C   0  0  0  0  0  0  0  0  0  0  0  0
    7.8265   12.8346   27.2487 O   0  0  0  0  0  0  0  0  0  0  0  0
    5.5857   11.9377   27.2654 C   0  0  0  0  0  0  0  0  0  0  0  0
    5.4347   12.2587   29.0469 S   0  0  0  0  0  0  0  0  0  0  0  0
    9.3914   11.9944   24.9708 C   0  0  0  0  0  0  0  0  0  0  0  0
   10.4463   11.9140   24.0669 C   0  0  0  0  0  0  0  0  0  0  0  0
  1  2  1  0
  2  3  2  0
  2  4  1  0
  4  5  2  0
  5  6  1  0
  6  7  2  0
  7  8  1  0
  8  9  1  0
  9 10  2  0
  9 11  1  0
 11 12  1  0
  7 13  1  0
 13 14  2  0
 14  4  1  0
M  END
>  <distance_score>  (528) 
0.548856

>  <ref_pdb>  (528) 
A1776a

>  <ref_mols>  (528) 
A1776a

>  <alias>  (528) 
None

>  <original SMILES>  (528) 
CC(=O)c1ccc(NC(=O)CS)cc1

>  <inchikey>  (528) 
WBJOQROPHCHERE-UHFFFAOYSA-N

>  <exports>  (528) 
['/opt/xchem-fragalysis-2/maxwin/2A_HIPPO/hippo/A71EV2A_10_recipes/Recipe_1LPUPHX_poses.sdf', '/opt/xchem-fragalysis-2/maxwin/2A_HIPPO/hippo/A71EV2A_10_recipes/Recipe_1LPVPY0_poses.sdf']

>  <original ID>  (528) 
WBJOQROPHCHERE-UHFFFAOYSA-N

>  <energy_score>  (528) 
-13.286296

>  <tags>  (528) 
[]

>  <HIPPO ID>  (528) 
167478

>  <name>  (528) 
WBJOQROPHCHERE-UHFFFAOYSA-N

$$$$
FLMLTMFETZMOHW-UHFFFAOYSA-N
     RDKit          3D

 14 14  0  0  0  0  0  0  0  0999 V2000
   12.4207   12.0139   21.9227 C   0  0  0  0  0  0  0  0  0  0  0  0
   11.6891   10.7226   22.2527 C   0  0  0  0  0  0  0  0  0  0  0  0
   11.8856    9.6745   21.6399 O   0  0  0  0  0  0  0  0  0  0  0  0
   10.6518   10.7601   23.3116 C   0  0  0  0  0  0  0  0  0  0  0  0
   10.4716   11.9001   24.0883 C   0  0  0  0  0  0  0  0  0  0  0  0
    9.4156   11.9908   24.9892 C   0  0  0  0  0  0  0  0  0  0  0  0
    8.5153   10.9413   25.1175 C   0  0  0  0  0  0  0  0  0  0  0  0
    7.3521   11.0285   25.9014 N   0  0  0  0  0  0  0  0  0  0  0  0
    7.0386   12.0485   26.7921 C   0  0  0  0  0  0  0  0  0  0  0  0
    7.8511   12.8427   27.2602 O   0  0  0  0  0  0  0  0  0  0  0  0
    5.5562   12.0841   27.1201 C   0  0  0  0  0  0  0  0  0  0  0  0
    5.2647   12.8930   28.6709 Cl  0  0  0  0  0  0  0  0  0  0  0  0
    8.7217    9.7779   24.3725 C   0  0  0  0  0  0  0  0  0  0  0  0
    9.7928    9.6762   23.4820 C   0  0  0  0  0  0  0  0  0  0  0  0
  1  2  1  0
  2  3  2  0
  2  4  1  0
  4  5  2  0
  5  6  1  0
  6  7  2  0
  7  8  1  0
  8  9  1  0
  9 10  2  0
  9 11  1  0
 11 12  1  0
  7 13  1  0
 13 14  2  0
 14  4  1  0
M  END
>  <distance_score>  (529) 
0.546944

>  <ref_pdb>  (529) 
A1776a

>  <ref_mols>  (529) 
A1776a

>  <alias>  (529) 
None

>  <original SMILES>  (529) 
CC(=O)c1ccc(NC(=O)CCl)cc1

>  <inchikey>  (529) 
FLMLTMFETZMOHW-UHFFFAOYSA-N

>  <exports>  (529) 
['/opt/xchem-fragalysis-2/maxwin/2A_HIPPO/hippo/A71EV2A_10_recipes/Recipe_1LPUPHX_poses.sdf', '/opt/xchem-fragalysis-2/maxwin/2A_HIPPO/hippo/A71EV2A_10_recipes/Recipe_1LPVPY0_poses.sdf']

>  <original ID>  (529) 
FLMLTMFETZMOHW-UHFFFAOYSA-N

>  <energy_score>  (529) 
-5.626978

>  <tags>  (529) 
[]

>  <HIPPO ID>  (529) 
167492

>  <name>  (529) 
FLMLTMFETZMOHW-UHFFFAOYSA-N

$$$$
LOVVDWAISSOSRE-UHFFFAOYSA-N
     RDKit          3D

 14 14  0  0  0  0  0  0  0  0999 V2000
   12.4012   12.0258   21.9423 C   0  0  0  0  0  0  0  0  0  0  0  0
   11.6735   10.7315   22.2650 C   0  0  0  0  0  0  0  0  0  0  0  0
   11.8805    9.6857   21.6514 O   0  0  0  0  0  0  0  0  0  0  0  0
   10.6314   10.7631   23.3199 C   0  0  0  0  0  0  0  0  0  0  0  0
    9.7732    9.6772   23.4767 C   0  0  0  0  0  0  0  0  0  0  0  0
    8.7064    9.7668   24.3723 C   0  0  0  0  0  0  0  0  0  0  0  0
    8.5042   10.9170   25.1374 C   0  0  0  0  0  0  0  0  0  0  0  0
    7.3730   10.9678   25.9576 N   0  0  0  0  0  0  0  0  0  0  0  0
    7.0411   11.9316   26.8896 C   0  0  0  0  0  0  0  0  0  0  0  0
    7.7585   12.8439   27.2928 O   0  0  0  0  0  0  0  0  0  0  0  0
    5.6172   11.7432   27.4253 C   0  0  0  0  0  0  0  0  0  0  0  0
    5.1880   10.3323   27.3255 N   0  0  0  0  0  0  0  0  0  0  0  0
    9.3973   11.9725   25.0181 C   0  0  0  0  0  0  0  0  0  0  0  0
   10.4492   11.8955   24.1098 C   0  0  0  0  0  0  0  0  0  0  0  0
  1  2  1  0
  2  3  2  0
  2  4  1  0
  4  5  2  0
  5  6  1  0
  6  7  2  0
  7  8  1  0
  8  9  1  0
  9 10  2  0
  9 11  1  0
 11 12  1  0
  7 13  1  0
 13 14  2  0
 14  4  1  0
M  END
>  <distance_score>  (530) 
0.569703

>  <ref_pdb>  (530) 
A1776a

>  <ref_mols>  (530) 
A1776a

>  <alias>  (530) 
None

>  <original SMILES>  (530) 
CC(=O)c1ccc(NC(=O)CN)cc1

>  <inchikey>  (530) 
LOVVDWAISSOSRE-UHFFFAOYSA-N

>  <exports>  (530) 
['/opt/xchem-fragalysis-2/maxwin/2A_HIPPO/hippo/A71EV2A_10_recipes/Recipe_1LPUPHX_poses.sdf', '/opt/xchem-fragalysis-2/maxwin/2A_HIPPO/hippo/A71EV2A_10_recipes/Recipe_1LPVPY0_poses.sdf']

>  <original ID>  (530) 
LOVVDWAISSOSRE-UHFFFAOYSA-N

>  <energy_score>  (530) 
-15.529679

>  <tags>  (530) 
[]

>  <HIPPO ID>  (530) 
167497

>  <name>  (530) 
LOVVDWAISSOSRE-UHFFFAOYSA-N

$$$$
ZFZKERKYEJXVKD-UHFFFAOYSA-N
     RDKit          3D

 14 14  0  0  0  0  0  0  0  0999 V2000
    5.8318   11.4245   29.8206 N   0  0  0  0  0  0  0  0  0  0  0  0
    5.7976   11.7168   28.6980 C   0  0  0  0  0  0  0  0  0  0  0  0
    5.7402   12.0579   27.2784 C   0  0  0  0  0  0  0  0  0  0  0  0
    7.1440   12.1110   26.7216 C   0  0  0  0  0  0  0  0  0  0  0  0
    7.9225   13.0001   27.0578 O   0  0  0  0  0  0  0  0  0  0  0  0
    7.4372   11.0606   25.8714 N   0  0  0  0  0  0  0  0  0  0  0  0
    8.5692   10.9264   25.0485 C   0  0  0  0  0  0  0  0  0  0  0  0
    8.7201    9.7092   24.3793 C   0  0  0  0  0  0  0  0  0  0  0  0
    9.7619    9.5078   23.4793 C   0  0  0  0  0  0  0  0  0  0  0  0
   10.6489   10.5476   23.2278 C   0  0  0  0  0  0  0  0  0  0  0  0
   11.6700   10.4036   22.1844 C   0  0  0  0  0  0  0  0  0  0  0  0
   11.8111    9.3577   21.5656 O   0  0  0  0  0  0  0  0  0  0  0  0
   10.5317   11.7580   23.9065 C   0  0  0  0  0  0  0  0  0  0  0  0
    9.4954   11.9430   24.8244 C   0  0  0  0  0  0  0  0  0  0  0  0
  1  2  3  0
  2  3  1  0
  3  4  1  0
  4  5  2  0
  4  6  1  0
  6  7  1  0
  7  8  2  0
  8  9  1  0
  9 10  2  0
 10 11  1  0
 11 12  2  0
 10 13  1  0
 13 14  2  0
 14  7  1  0
M  END
>  <distance_score>  (531) 
0.405409

>  <ref_pdb>  (531) 
A1776a

>  <ref_mols>  (531) 
A1776a

>  <alias>  (531) 
None

>  <original SMILES>  (531) 
N#CCC(=O)Nc1ccc(C=O)cc1

>  <inchikey>  (531) 
ZFZKERKYEJXVKD-UHFFFAOYSA-N

>  <exports>  (531) 
['/opt/xchem-fragalysis-2/maxwin/2A_HIPPO/hippo/A71EV2A_10_recipes/Recipe_1LPUPHX_poses.sdf', '/opt/xchem-fragalysis-2/maxwin/2A_HIPPO/hippo/A71EV2A_10_recipes/Recipe_1LPVPY0_poses.sdf']

>  <original ID>  (531) 
ZFZKERKYEJXVKD-UHFFFAOYSA-N

>  <energy_score>  (531) 
-7.288847

>  <tags>  (531) 
[]

>  <HIPPO ID>  (531) 
167545

>  <name>  (531) 
ZFZKERKYEJXVKD-UHFFFAOYSA-N

$$$$
PZPYKIXOPOPDHD-UHFFFAOYSA-N
     RDKit          3D

 14 14  0  0  0  0  0  0  0  0999 V2000
    3.8056   10.9555   27.7068 C   0  0  0  0  0  0  0  0  0  0  0  0
    5.0442   10.9918   27.0113 O   0  0  0  0  0  0  0  0  0  0  0  0
    5.7263   12.2204   27.2540 C   0  0  0  0  0  0  0  0  0  0  0  0
    7.1739   12.2038   26.7633 C   0  0  0  0  0  0  0  0  0  0  0  0
    7.9803   13.0472   27.1477 O   0  0  0  0  0  0  0  0  0  0  0  0
    7.4255   11.1610   25.8985 N   0  0  0  0  0  0  0  0  0  0  0  0
    8.5515   10.9724   25.0864 C   0  0  0  0  0  0  0  0  0  0  0  0
    9.5262   11.9477   24.8854 C   0  0  0  0  0  0  0  0  0  0  0  0
   10.5556   11.7340   23.9673 C   0  0  0  0  0  0  0  0  0  0  0  0
   10.6200   10.5326   23.2664 C   0  0  0  0  0  0  0  0  0  0  0  0
   11.6341   10.3727   22.2174 C   0  0  0  0  0  0  0  0  0  0  0  0
   11.7625    9.3269   21.5966 O   0  0  0  0  0  0  0  0  0  0  0  0
    9.6880    9.5274   23.5006 C   0  0  0  0  0  0  0  0  0  0  0  0
    8.6500    9.7606   24.4002 C   0  0  0  0  0  0  0  0  0  0  0  0
  1  2  1  0
  2  3  1  0
  3  4  1  0
  4  5  2  0
  4  6  1  0
  6  7  1  0
  7  8  2  0
  8  9  1  0
  9 10  2  0
 10 11  1  0
 11 12  2  0
 10 13  1  0
 13 14  2  0
 14  7  1  0
M  END
>  <distance_score>  (532) 
0.430584

>  <ref_pdb>  (532) 
A1776a

>  <ref_mols>  (532) 
A1776a

>  <alias>  (532) 
None

>  <original SMILES>  (532) 
COCC(=O)Nc1ccc(C=O)cc1

>  <inchikey>  (532) 
PZPYKIXOPOPDHD-UHFFFAOYSA-N

>  <exports>  (532) 
['/opt/xchem-fragalysis-2/maxwin/2A_HIPPO/hippo/A71EV2A_10_recipes/Recipe_1LPUPHX_poses.sdf', '/opt/xchem-fragalysis-2/maxwin/2A_HIPPO/hippo/A71EV2A_10_recipes/Recipe_1LPVPY0_poses.sdf']

>  <original ID>  (532) 
PZPYKIXOPOPDHD-UHFFFAOYSA-N

>  <energy_score>  (532) 
-23.114511

>  <tags>  (532) 
[]

>  <HIPPO ID>  (532) 
167585

>  <name>  (532) 
PZPYKIXOPOPDHD-UHFFFAOYSA-N

$$$$
WARPXUXEHZSECO-UHFFFAOYSA-N
     RDKit          3D

 14 14  0  0  0  0  0  0  0  0999 V2000
    5.7622   11.6389   28.8037 C   0  0  0  0  0  0  0  0  0  0  0  0
    5.8626   12.0712   27.5427 C   0  0  0  0  0  0  0  0  0  0  0  0
    4.4878   12.5551   26.6442 Cl  0  0  0  0  0  0  0  0  0  0  0  0
    7.2023   12.1485   26.8955 C   0  0  0  0  0  0  0  0  0  0  0  0
    8.0472   12.9301   27.3192 O   0  0  0  0  0  0  0  0  0  0  0  0
    7.3733   11.1850   25.9250 N   0  0  0  0  0  0  0  0  0  0  0  0
    8.4991   11.0022   25.1035 C   0  0  0  0  0  0  0  0  0  0  0  0
    8.5873    9.7996   24.3984 C   0  0  0  0  0  0  0  0  0  0  0  0
    9.6326    9.5613   23.5079 C   0  0  0  0  0  0  0  0  0  0  0  0
   10.5814   10.5548   23.2953 C   0  0  0  0  0  0  0  0  0  0  0  0
   11.6026   10.3905   22.2521 C   0  0  0  0  0  0  0  0  0  0  0  0
   11.7302    9.3444   21.6309 O   0  0  0  0  0  0  0  0  0  0  0  0
   10.5253   11.7477   24.0125 C   0  0  0  0  0  0  0  0  0  0  0  0
    9.4904   11.9646   24.9262 C   0  0  0  0  0  0  0  0  0  0  0  0
  1  2  2  0
  2  3  1  0
  2  4  1  0
  4  5  2  0
  4  6  1  0
  6  7  1  0
  7  8  2  0
  8  9  1  0
  9 10  2  0
 10 11  1  0
 11 12  2  0
 10 13  1  0
 13 14  2  0
 14  7  1  0
M  END
>  <distance_score>  (533) 
0.463249

>  <ref_pdb>  (533) 
A1776a

>  <ref_mols>  (533) 
A1776a

>  <alias>  (533) 
None

>  <original SMILES>  (533) 
C=C(Cl)C(=O)Nc1ccc(C=O)cc1

>  <inchikey>  (533) 
WARPXUXEHZSECO-UHFFFAOYSA-N

>  <exports>  (533) 
['/opt/xchem-fragalysis-2/maxwin/2A_HIPPO/hippo/A71EV2A_10_recipes/Recipe_1LPUPHX_poses.sdf', '/opt/xchem-fragalysis-2/maxwin/2A_HIPPO/hippo/A71EV2A_10_recipes/Recipe_1LPVPY0_poses.sdf']

>  <original ID>  (533) 
WARPXUXEHZSECO-UHFFFAOYSA-N

>  <energy_score>  (533) 
-14.007555

>  <tags>  (533) 
[]

>  <HIPPO ID>  (533) 
167586

>  <name>  (533) 
WARPXUXEHZSECO-UHFFFAOYSA-N

$$$$
ZLGXOIGFHQTJFD-UHFFFAOYSA-N
     RDKit          3D

 14 14  0  0  0  0  0  0  0  0999 V2000
   12.4189   12.0158   21.9243 C   0  0  0  0  0  0  0  0  0  0  0  0
   11.6787   10.7294   22.2535 C   0  0  0  0  0  0  0  0  0  0  0  0
   11.8755    9.6784   21.6458 O   0  0  0  0  0  0  0  0  0  0  0  0
   10.6386   10.7737   23.3100 C   0  0  0  0  0  0  0  0  0  0  0  0
    9.7941    9.6817   23.5024 C   0  0  0  0  0  0  0  0  0  0  0  0
    8.7385    9.7764   24.4123 C   0  0  0  0  0  0  0  0  0  0  0  0
    8.5360   10.9405   25.1568 C   0  0  0  0  0  0  0  0  0  0  0  0
    7.4155   11.0045   25.9957 N   0  0  0  0  0  0  0  0  0  0  0  0
    7.1032   12.0134   26.8900 C   0  0  0  0  0  0  0  0  0  0  0  0
    7.8591   12.8851   27.3086 O   0  0  0  0  0  0  0  0  0  0  0  0
    5.6573   11.9190   27.3742 C   0  0  0  0  0  0  0  0  0  0  0  0
    4.8505   11.0875   26.5530 O   0  0  0  0  0  0  0  0  0  0  0  0
    9.4097   12.0069   24.9924 C   0  0  0  0  0  0  0  0  0  0  0  0
   10.4481   11.9236   24.0706 C   0  0  0  0  0  0  0  0  0  0  0  0
  1  2  1  0
  2  3  2  0
  2  4  1  0
  4  5  2  0
  5  6  1  0
  6  7  2  0
  7  8  1  0
  8  9  1  0
  9 10  2  0
  9 11  1  0
 11 12  1  0
  7 13  1  0
 13 14  2  0
 14  4  1  0
M  END
>  <distance_score>  (534) 
0.890303

>  <ref_pdb>  (534) 
A1776a

>  <ref_mols>  (534) 
A1776a

>  <alias>  (534) 
None

>  <original SMILES>  (534) 
CC(=O)c1ccc(NC(=O)CO)cc1

>  <inchikey>  (534) 
ZLGXOIGFHQTJFD-UHFFFAOYSA-N

>  <exports>  (534) 
['/opt/xchem-fragalysis-2/maxwin/2A_HIPPO/hippo/A71EV2A_10_recipes/Recipe_1LPUPHX_poses.sdf', '/opt/xchem-fragalysis-2/maxwin/2A_HIPPO/hippo/A71EV2A_10_recipes/Recipe_1LPVPY0_poses.sdf']

>  <original ID>  (534) 
ZLGXOIGFHQTJFD-UHFFFAOYSA-N

>  <energy_score>  (534) 
-12.911562

>  <tags>  (534) 
[]

>  <HIPPO ID>  (534) 
167620

>  <name>  (534) 
ZLGXOIGFHQTJFD-UHFFFAOYSA-N

$$$$
QJLXASMDOHNPOL-UHFFFAOYSA-N
     RDKit          3D

 15 15  0  0  0  0  0  0  0  0999 V2000
   12.3988   12.0263   21.9433 C   0  0  0  0  0  0  0  0  0  0  0  0
   11.6868   10.7239   22.2682 C   0  0  0  0  0  0  0  0  0  0  0  0
   11.8900    9.6830   21.6455 O   0  0  0  0  0  0  0  0  0  0  0  0
   10.6533   10.7440   23.3308 C   0  0  0  0  0  0  0  0  0  0  0  0
    9.7548    9.6857   23.4356 C   0  0  0  0  0  0  0  0  0  0  0  0
    8.6730    9.7877   24.3103 C   0  0  0  0  0  0  0  0  0  0  0  0
    8.4950   10.9219   25.1044 C   0  0  0  0  0  0  0  0  0  0  0  0
    7.3250   11.0083   25.8697 N   0  0  0  0  0  0  0  0  0  0  0  0
    7.0322   11.9602   26.8272 C   0  0  0  0  0  0  0  0  0  0  0  0
    7.7850   12.7761   27.3380 O   0  0  0  0  0  0  0  0  0  0  0  0
    5.5788   11.8420   27.3304 C   0  0  0  0  0  0  0  0  0  0  0  0
    5.1892   10.5675   27.6697 N   0  0  0  0  0  0  0  0  0  0  0  0
    4.8442   12.8100   27.4308 O   0  0  0  0  0  0  0  0  0  0  0  0
    9.4425   11.9351   25.0573 C   0  0  0  0  0  0  0  0  0  0  0  0
   10.5117   11.8452   24.1707 C   0  0  0  0  0  0  0  0  0  0  0  0
  1  2  1  0
  2  3  2  0
  2  4  1  0
  4  5  2  0
  5  6  1  0
  6  7  2  0
  7  8  1  0
  8  9  1  0
  9 10  2  0
  9 11  1  0
 11 12  1  0
 11 13  2  0
  7 14  1  0
 14 15  2  0
 15  4  1  0
M  END
>  <distance_score>  (535) 
0.794083

>  <ref_pdb>  (535) 
A1776a

>  <ref_mols>  (535) 
A1776a

>  <alias>  (535) 
None

>  <original SMILES>  (535) 
CC(=O)c1ccc(NC(=O)C(N)=O)cc1

>  <inchikey>  (535) 
QJLXASMDOHNPOL-UHFFFAOYSA-N

>  <exports>  (535) 
['/opt/xchem-fragalysis-2/maxwin/2A_HIPPO/hippo/A71EV2A_10_recipes/Recipe_1LPVPY0_poses.sdf']

>  <original ID>  (535) 
QJLXASMDOHNPOL-UHFFFAOYSA-N

>  <energy_score>  (535) 
-6.515177

>  <tags>  (535) 
[]

>  <HIPPO ID>  (535) 
168091

>  <name>  (535) 
QJLXASMDOHNPOL-UHFFFAOYSA-N

$$$$
WPFBRJWFVGBZJI-UHFFFAOYSA-N
     RDKit          3D

 15 15  0  0  0  0  0  0  0  0999 V2000
   12.4345   12.0442   21.9239 C   0  0  0  0  0  0  0  0  0  0  0  0
   11.6961   10.7556   22.2393 C   0  0  0  0  0  0  0  0  0  0  0  0
   11.9116    9.7050   21.6366 O   0  0  0  0  0  0  0  0  0  0  0  0
   10.6403   10.7909   23.2796 C   0  0  0  0  0  0  0  0  0  0  0  0
    9.8353    9.6718   23.4775 C   0  0  0  0  0  0  0  0  0  0  0  0
    8.7638    9.7427   24.3675 C   0  0  0  0  0  0  0  0  0  0  0  0
    8.5036   10.9101   25.0900 C   0  0  0  0  0  0  0  0  0  0  0  0
    7.3667   10.9247   25.9149 N   0  0  0  0  0  0  0  0  0  0  0  0
    7.0106   11.9117   26.8193 C   0  0  0  0  0  0  0  0  0  0  0  0
    7.7244   12.8405   27.1933 O   0  0  0  0  0  0  0  0  0  0  0  0
    5.6381   11.7097   27.4092 C   0  0  0  0  0  0  0  0  0  0  0  0
    4.6290   12.4751   26.6848 C   0  0  0  0  0  0  0  0  0  0  0  0
    3.7518   13.0307   26.1660 N   0  0  0  0  0  0  0  0  0  0  0  0
    9.3380   12.0072   24.9221 C   0  0  0  0  0  0  0  0  0  0  0  0
   10.3930   11.9480   24.0145 C   0  0  0  0  0  0  0  0  0  0  0  0
  1  2  1  0
  2  3  2  0
  2  4  1  0
  4  5  2  0
  5  6  1  0
  6  7  2  0
  7  8  1  0
  8  9  1  0
  9 10  2  0
  9 11  1  0
 11 12  1  0
 12 13  3  0
  7 14  1  0
 14 15  2  0
 15  4  1  0
M  END
>  <distance_score>  (536) 
0.894943

>  <ref_pdb>  (536) 
A1776a

>  <ref_mols>  (536) 
A1776a

>  <alias>  (536) 
None

>  <original SMILES>  (536) 
CC(=O)c1ccc(NC(=O)CC#N)cc1

>  <inchikey>  (536) 
WPFBRJWFVGBZJI-UHFFFAOYSA-N

>  <exports>  (536) 
['/opt/xchem-fragalysis-2/maxwin/2A_HIPPO/hippo/A71EV2A_10_recipes/Recipe_1LPUPHX_poses.sdf', '/opt/xchem-fragalysis-2/maxwin/2A_HIPPO/hippo/A71EV2A_10_recipes/Recipe_1LPVPY0_poses.sdf']

>  <original ID>  (536) 
WPFBRJWFVGBZJI-UHFFFAOYSA-N

>  <energy_score>  (536) 
-13.096157

>  <tags>  (536) 
[]

>  <HIPPO ID>  (536) 
168211

>  <name>  (536) 
WPFBRJWFVGBZJI-UHFFFAOYSA-N

$$$$
NJLBVTQYWOTWQL-MRVPVSSYSA-N
     RDKit          3D

 15 15  0  0  0  0  0  0  0  0999 V2000
    4.7235   12.7456   26.8390 C   0  0  0  0  0  0  0  0  0  0  0  0
    5.7288   11.7324   27.3645 C   0  0  2  0  0  0  0  0  0  0  0  0
    5.8487   11.8304   28.8240 C   0  0  0  0  0  0  0  0  0  0  0  0
    5.9205   11.9071   29.9799 N   0  0  0  0  0  0  0  0  0  0  0  0
    7.0971   11.9569   26.7344 C   0  0  0  0  0  0  0  0  0  0  0  0
    7.7869   12.9338   27.0145 O   0  0  0  0  0  0  0  0  0  0  0  0
    7.4514   10.9374   25.8672 N   0  0  0  0  0  0  0  0  0  0  0  0
    8.5770   10.8694   25.0298 C   0  0  0  0  0  0  0  0  0  0  0  0
    8.7679    9.6630   24.3499 C   0  0  0  0  0  0  0  0  0  0  0  0
    9.8130    9.5005   23.4492 C   0  0  0  0  0  0  0  0  0  0  0  0
   10.6649   10.5696   23.2060 C   0  0  0  0  0  0  0  0  0  0  0  0
   11.6937   10.4520   22.1673 C   0  0  0  0  0  0  0  0  0  0  0  0
   11.8585    9.4097   21.5471 O   0  0  0  0  0  0  0  0  0  0  0  0
   10.5059   11.7733   23.8906 C   0  0  0  0  0  0  0  0  0  0  0  0
    9.4645   11.9199   24.8119 C   0  0  0  0  0  0  0  0  0  0  0  0
  2  1  1  6
  2  3  1  0
  3  4  3  0
  2  5  1  0
  5  6  2  0
  5  7  1  0
  7  8  1  0
  8  9  2  0
  9 10  1  0
 10 11  2  0
 11 12  1  0
 12 13  2  0
 11 14  1  0
 14 15  2  0
 15  8  1  0
M  END
>  <distance_score>  (537) 
0.410882

>  <ref_pdb>  (537) 
A1776a

>  <ref_mols>  (537) 
A1776a

>  <alias>  (537) 
None

>  <original SMILES>  (537) 
C[C@H](C#N)C(=O)Nc1ccc(C=O)cc1

>  <inchikey>  (537) 
NJLBVTQYWOTWQL-MRVPVSSYSA-N

>  <exports>  (537) 
['/opt/xchem-fragalysis-2/maxwin/2A_HIPPO/hippo/A71EV2A_10_recipes/Recipe_1LPVPY0_poses.sdf']

>  <original ID>  (537) 
NJLBVTQYWOTWQL-MRVPVSSYSA-N

>  <energy_score>  (537) 
-9.887929

>  <tags>  (537) 
[]

>  <HIPPO ID>  (537) 
168302

>  <name>  (537) 
NJLBVTQYWOTWQL-MRVPVSSYSA-N

$$$$
NJLBVTQYWOTWQL-QMMMGPOBSA-N
     RDKit          3D

 15 15  0  0  0  0  0  0  0  0999 V2000
    4.7767   12.6500   26.6855 C   0  0  0  0  0  0  0  0  0  0  0  0
    5.8731   12.0925   27.5764 C   0  0  1  0  0  0  0  0  0  0  0  0
    5.5390   10.7488   28.0587 C   0  0  0  0  0  0  0  0  0  0  0  0
    5.2773    9.6756   28.4112 N   0  0  0  0  0  0  0  0  0  0  0  0
    7.2265   12.0991   26.8823 C   0  0  0  0  0  0  0  0  0  0  0  0
    8.0677   12.9328   27.2200 O   0  0  0  0  0  0  0  0  0  0  0  0
    7.4075   11.1320   25.9119 N   0  0  0  0  0  0  0  0  0  0  0  0
    8.5273   10.9761   25.0734 C   0  0  0  0  0  0  0  0  0  0  0  0
    8.6412    9.7648   24.3862 C   0  0  0  0  0  0  0  0  0  0  0  0
    9.6840    9.5402   23.4904 C   0  0  0  0  0  0  0  0  0  0  0  0
   10.6059   10.5536   23.2562 C   0  0  0  0  0  0  0  0  0  0  0  0
   11.6312   10.3934   22.2176 C   0  0  0  0  0  0  0  0  0  0  0  0
   11.7698    9.3442   21.6043 O   0  0  0  0  0  0  0  0  0  0  0  0
   10.5212   11.7588   23.9489 C   0  0  0  0  0  0  0  0  0  0  0  0
    9.4869   11.9646   24.8652 C   0  0  0  0  0  0  0  0  0  0  0  0
  2  1  1  6
  2  3  1  0
  3  4  3  0
  2  5  1  0
  5  6  2  0
  5  7  1  0
  7  8  1  0
  8  9  2  0
  9 10  1  0
 10 11  2  0
 11 12  1  0
 12 13  2  0
 11 14  1  0
 14 15  2  0
 15  8  1  0
M  END
>  <distance_score>  (538) 
0.445669

>  <ref_pdb>  (538) 
A1776a

>  <ref_mols>  (538) 
A1776a

>  <alias>  (538) 
None

>  <original SMILES>  (538) 
C[C@@H](C#N)C(=O)Nc1ccc(C=O)cc1

>  <inchikey>  (538) 
NJLBVTQYWOTWQL-QMMMGPOBSA-N

>  <exports>  (538) 
['/opt/xchem-fragalysis-2/maxwin/2A_HIPPO/hippo/A71EV2A_10_recipes/Recipe_1LPVPY0_poses.sdf']

>  <original ID>  (538) 
NJLBVTQYWOTWQL-QMMMGPOBSA-N

>  <energy_score>  (538) 
-13.539608

>  <tags>  (538) 
[]

>  <HIPPO ID>  (538) 
168303

>  <name>  (538) 
NJLBVTQYWOTWQL-QMMMGPOBSA-N

$$$$
DMEWEZIFTMEFDJ-UHFFFAOYSA-N
     RDKit          3D

 15 15  0  0  0  0  0  0  0  0999 V2000
    4.8109   13.0930   26.1999 C   0  0  0  0  0  0  0  0  0  0  0  0
    5.6084   12.5453   27.1190 C   0  0  0  0  0  0  0  0  0  0  0  0
    5.0414   12.3401   28.7139 Cl  0  0  0  0  0  0  0  0  0  0  0  0
    7.0470   12.2826   26.8392 C   0  0  0  0  0  0  0  0  0  0  0  0
    7.9135   12.8946   27.4571 O   0  0  0  0  0  0  0  0  0  0  0  0
    7.2490   11.3007   25.8888 N   0  0  0  0  0  0  0  0  0  0  0  0
    8.4414   11.0716   25.1784 C   0  0  0  0  0  0  0  0  0  0  0  0
    8.5431    9.9255   24.3869 C   0  0  0  0  0  0  0  0  0  0  0  0
    9.6258    9.7438   23.5191 C   0  0  0  0  0  0  0  0  0  0  0  0
   10.6036   10.7317   23.4253 C   0  0  0  0  0  0  0  0  0  0  0  0
   11.6171   10.6803   22.3418 C   0  0  0  0  0  0  0  0  0  0  0  0
   12.3338   11.9752   21.9871 C   0  0  0  0  0  0  0  0  0  0  0  0
   11.7879    9.6346   21.7185 O   0  0  0  0  0  0  0  0  0  0  0  0
   10.5523   11.8203   24.2895 C   0  0  0  0  0  0  0  0  0  0  0  0
    9.4792   11.9929   25.1576 C   0  0  0  0  0  0  0  0  0  0  0  0
  1  2  2  0
  2  3  1  0
  2  4  1  0
  4  5  2  0
  4  6  1  0
  6  7  1  0
  7  8  2  0
  8  9  1  0
  9 10  2  0
 10 11  1  0
 11 12  1  0
 11 13  2  0
 10 14  1  0
 14 15  2  0
 15  7  1  0
M  END
>  <distance_score>  (539) 
0.625115

>  <ref_pdb>  (539) 
A1776a

>  <ref_mols>  (539) 
A1776a

>  <alias>  (539) 
None

>  <original SMILES>  (539) 
C=C(Cl)C(=O)Nc1ccc(C(C)=O)cc1

>  <inchikey>  (539) 
DMEWEZIFTMEFDJ-UHFFFAOYSA-N

>  <exports>  (539) 
['/opt/xchem-fragalysis-2/maxwin/2A_HIPPO/hippo/A71EV2A_10_recipes/Recipe_1LPUPHX_poses.sdf', '/opt/xchem-fragalysis-2/maxwin/2A_HIPPO/hippo/A71EV2A_10_recipes/Recipe_1LPVPY0_poses.sdf']

>  <original ID>  (539) 
DMEWEZIFTMEFDJ-UHFFFAOYSA-N

>  <energy_score>  (539) 
-8.555512

>  <tags>  (539) 
[]

>  <HIPPO ID>  (539) 
168322

>  <name>  (539) 
DMEWEZIFTMEFDJ-UHFFFAOYSA-N

$$$$
ORZFTELEAXKDTN-UHFFFAOYSA-N
     RDKit          3D

 15 15  0  0  0  0  0  0  0  0999 V2000
    5.1262    9.6094   27.5805 C   0  0  0  0  0  0  0  0  0  0  0  0
    5.1468   10.9172   28.1307 O   0  0  0  0  0  0  0  0  0  0  0  0
    5.5548   11.9298   27.2259 C   0  0  0  0  0  0  0  0  0  0  0  0
    7.0356   11.9654   26.8124 C   0  0  0  0  0  0  0  0  0  0  0  0
    7.8279   12.7495   27.3306 O   0  0  0  0  0  0  0  0  0  0  0  0
    7.3416   11.0270   25.8428 N   0  0  0  0  0  0  0  0  0  0  0  0
    8.5218   10.9336   25.0935 C   0  0  0  0  0  0  0  0  0  0  0  0
    8.7000    9.7949   24.3041 C   0  0  0  0  0  0  0  0  0  0  0  0
    9.7800    9.6904   23.4287 C   0  0  0  0  0  0  0  0  0  0  0  0
   10.6763   10.7497   23.3194 C   0  0  0  0  0  0  0  0  0  0  0  0
   11.7060   10.7280   22.2539 C   0  0  0  0  0  0  0  0  0  0  0  0
   12.4189   12.0290   21.9256 C   0  0  0  0  0  0  0  0  0  0  0  0
   11.9057    9.6865   21.6308 O   0  0  0  0  0  0  0  0  0  0  0  0
   10.5361   11.8531   24.1571 C   0  0  0  0  0  0  0  0  0  0  0  0
    9.4682   11.9463   25.0445 C   0  0  0  0  0  0  0  0  0  0  0  0
  1  2  1  0
  2  3  1  0
  3  4  1  0
  4  5  2  0
  4  6  1  0
  6  7  1  0
  7  8  2  0
  8  9  1  0
  9 10  2  0
 10 11  1  0
 11 12  1  0
 11 13  2  0
 10 14  1  0
 14 15  2  0
 15  7  1  0
M  END
>  <distance_score>  (540) 
0.543509

>  <ref_pdb>  (540) 
A1776a

>  <ref_mols>  (540) 
A1776a

>  <alias>  (540) 
None

>  <original SMILES>  (540) 
COCC(=O)Nc1ccc(C(C)=O)cc1

>  <inchikey>  (540) 
ORZFTELEAXKDTN-UHFFFAOYSA-N

>  <exports>  (540) 
['/opt/xchem-fragalysis-2/maxwin/2A_HIPPO/hippo/A71EV2A_10_recipes/Recipe_1LPUPHX_poses.sdf', '/opt/xchem-fragalysis-2/maxwin/2A_HIPPO/hippo/A71EV2A_10_recipes/Recipe_1LPVPY0_poses.sdf']

>  <original ID>  (540) 
ORZFTELEAXKDTN-UHFFFAOYSA-N

>  <energy_score>  (540) 
-5.573865

>  <tags>  (540) 
[]

>  <HIPPO ID>  (540) 
168350

>  <name>  (540) 
ORZFTELEAXKDTN-UHFFFAOYSA-N

$$$$
KFMLZTJZPGCEDH-UHFFFAOYSA-N
     RDKit          3D

 15 15  0  0  0  0  0  0  0  0999 V2000
   12.4511   12.1614   21.9634 C   0  0  0  0  0  0  0  0  0  0  0  0
   11.6965   10.8826   22.2579 C   0  0  0  0  0  0  0  0  0  0  0  0
   11.9499    9.8595   21.6260 O   0  0  0  0  0  0  0  0  0  0  0  0
   10.6172   10.9212   23.2926 C   0  0  0  0  0  0  0  0  0  0  0  0
   10.2834   12.1344   23.8990 C   0  0  0  0  0  0  0  0  0  0  0  0
    9.2350   12.2275   24.8180 C   0  0  0  0  0  0  0  0  0  0  0  0
    8.4645   11.1121   25.1130 C   0  0  0  0  0  0  0  0  0  0  0  0
    7.3358   11.1480   25.9419 N   0  0  0  0  0  0  0  0  0  0  0  0
    6.9968   12.1663   26.8038 C   0  0  0  0  0  0  0  0  0  0  0  0
    7.7368   13.0687   27.1940 O   0  0  0  0  0  0  0  0  0  0  0  0
    5.5561   12.0750   27.3022 C   0  0  0  0  0  0  0  0  0  0  0  0
    5.2638   13.1108   28.2303 O   0  0  0  0  0  0  0  0  0  0  0  0
    8.7781    9.9038   24.5099 C   0  0  0  0  0  0  0  0  0  0  0  0
    9.8659    9.8001   23.6387 C   0  0  0  0  0  0  0  0  0  0  0  0
   10.1767    8.2346   23.0539 Cl  0  0  0  0  0  0  0  0  0  0  0  0
  1  2  1  0
  2  3  2  0
  2  4  1  0
  4  5  2  0
  5  6  1  0
  6  7  2  0
  7  8  1  0
  8  9  1  0
  9 10  2  0
  9 11  1  0
 11 12  1  0
  7 13  1  0
 13 14  2  0
 14 15  1  0
 14  4  1  0
M  END
>  <distance_score>  (541) 
0.950579

>  <ref_pdb>  (541) 
A1776a

>  <ref_mols>  (541) 
A1776a

>  <alias>  (541) 
None

>  <original SMILES>  (541) 
CC(=O)c1ccc(NC(=O)CO)cc1Cl

>  <inchikey>  (541) 
KFMLZTJZPGCEDH-UHFFFAOYSA-N

>  <exports>  (541) 
['/opt/xchem-fragalysis-2/maxwin/2A_HIPPO/hippo/A71EV2A_10_recipes/Recipe_1LPVPY0_poses.sdf']

>  <original ID>  (541) 
KFMLZTJZPGCEDH-UHFFFAOYSA-N

>  <energy_score>  (541) 
-30.714806

>  <tags>  (541) 
[]

>  <HIPPO ID>  (541) 
168608

>  <name>  (541) 
KFMLZTJZPGCEDH-UHFFFAOYSA-N

$$$$
RAZLEBYOIDBONO-UHFFFAOYSA-N
     RDKit          3D

 15 15  0  0  0  0  0  0  0  0999 V2000
   12.2546   11.8293   21.9241 C   0  0  0  0  0  0  0  0  0  0  0  0
   11.6024   10.4995   22.3018 C   0  0  0  0  0  0  0  0  0  0  0  0
   11.8324    9.4621   21.6829 O   0  0  0  0  0  0  0  0  0  0  0  0
   10.5462   10.4815   23.3492 C   0  0  0  0  0  0  0  0  0  0  0  0
    9.5366    9.5366   23.3158 C   0  0  0  0  0  0  0  0  0  0  0  0
    8.4573    9.6579   24.2018 C   0  0  0  0  0  0  0  0  0  0  0  0
    8.3359   10.7201   25.0955 C   0  0  0  0  0  0  0  0  0  0  0  0
    7.1750   10.8240   25.8769 N   0  0  0  0  0  0  0  0  0  0  0  0
    6.9142   11.7623   26.8667 C   0  0  0  0  0  0  0  0  0  0  0  0
    7.6995   12.6044   27.2970 O   0  0  0  0  0  0  0  0  0  0  0  0
    5.5125   11.6393   27.4358 C   0  0  0  0  0  0  0  0  0  0  0  0
    4.4156   12.8710   26.6968 S   0  0  0  0  0  0  0  0  0  0  0  0
    9.3835   11.5981   25.1830 C   0  0  0  0  0  0  0  0  0  0  0  0
   10.4947   11.4087   24.3722 C   0  0  0  0  0  0  0  0  0  0  0  0
   11.8962   12.1334   24.9274 Cl  0  0  0  0  0  0  0  0  0  0  0  0
  1  2  1  0
  2  3  2  0
  2  4  1  0
  4  5  2  0
  5  6  1  0
  6  7  2  0
  7  8  1  0
  8  9  1  0
  9 10  2  0
  9 11  1  0
 11 12  1  0
  7 13  1  0
 13 14  2  0
 14 15  1  0
 14  4  1  0
M  END
>  <distance_score>  (542) 
0.646397

>  <ref_pdb>  (542) 
A1776a

>  <ref_mols>  (542) 
A1776a

>  <alias>  (542) 
None

>  <original SMILES>  (542) 
CC(=O)c1ccc(NC(=O)CS)cc1Cl

>  <inchikey>  (542) 
RAZLEBYOIDBONO-UHFFFAOYSA-N

>  <exports>  (542) 
['/opt/xchem-fragalysis-2/maxwin/2A_HIPPO/hippo/A71EV2A_10_recipes/Recipe_1LPVPY0_poses.sdf']

>  <original ID>  (542) 
RAZLEBYOIDBONO-UHFFFAOYSA-N

>  <energy_score>  (542) 
-30.389567

>  <tags>  (542) 
[]

>  <HIPPO ID>  (542) 
168656

>  <name>  (542) 
RAZLEBYOIDBONO-UHFFFAOYSA-N

$$$$
NNHLYAVDXWUELO-UHFFFAOYSA-N
     RDKit          3D

 15 15  0  0  0  0  0  0  0  0999 V2000
   12.4104   11.5522   21.9653 N   0  0  0  0  0  0  0  0  0  0  0  0
   11.5954   10.4822   22.2223 C   0  0  0  0  0  0  0  0  0  0  0  0
   11.7074    9.4436   21.5846 O   0  0  0  0  0  0  0  0  0  0  0  0
   10.5720   10.6403   23.2808 C   0  0  0  0  0  0  0  0  0  0  0  0
   10.3474   11.8501   23.9349 C   0  0  0  0  0  0  0  0  0  0  0  0
    9.3112   11.9738   24.8710 C   0  0  0  0  0  0  0  0  0  0  0  0
    8.4577   10.9039   25.1615 C   0  0  0  0  0  0  0  0  0  0  0  0
    7.3690   11.0167   26.0950 N   0  0  0  0  0  0  0  0  0  0  0  0
    6.3747   10.0172   26.1048 N   0  0  0  0  0  0  0  0  0  0  0  0
    7.1796   12.1043   26.9756 C   0  0  0  0  0  0  0  0  0  0  0  0
    8.0115   12.9868   27.2101 O   0  0  0  0  0  0  0  0  0  0  0  0
    5.8807   12.0981   27.7695 C   0  0  0  0  0  0  0  0  0  0  0  0
    4.4917   12.5204   26.7543 Cl  0  0  0  0  0  0  0  0  0  0  0  0
    8.6936    9.7050   24.4707 C   0  0  0  0  0  0  0  0  0  0  0  0
    9.7427    9.5613   23.5595 C   0  0  0  0  0  0  0  0  0  0  0  0
  1  2  1  0
  2  3  2  0
  2  4  1  0
  4  5  2  0
  5  6  1  0
  6  7  2  0
  7  8  1  0
  8  9  1  0
  8 10  1  0
 10 11  2  0
 10 12  1  0
 12 13  1  0
  7 14  1  0
 14 15  2  0
 15  4  1  0
M  END
>  <distance_score>  (543) 
0.548182

>  <ref_pdb>  (543) 
A1776a

>  <ref_mols>  (543) 
A1776a

>  <alias>  (543) 
None

>  <original SMILES>  (543) 
NC(=O)c1ccc(N(N)C(=O)CCl)cc1

>  <inchikey>  (543) 
NNHLYAVDXWUELO-UHFFFAOYSA-N

>  <exports>  (543) 
['/opt/xchem-fragalysis-2/maxwin/2A_HIPPO/hippo/A71EV2A_10_recipes/Recipe_1LPVPY0_poses.sdf']

>  <original ID>  (543) 
NNHLYAVDXWUELO-UHFFFAOYSA-N

>  <energy_score>  (543) 
-41.260568

>  <tags>  (543) 
[]

>  <HIPPO ID>  (543) 
168753

>  <name>  (543) 
NNHLYAVDXWUELO-UHFFFAOYSA-N

$$$$
NWZXEKIZZVJCHN-UHFFFAOYSA-N
     RDKit          3D

 15 15  0  0  0  0  0  0  0  0999 V2000
   12.5022   11.5522   21.8855 N   0  0  0  0  0  0  0  0  0  0  0  0
   11.6743   10.4970   22.1652 C   0  0  0  0  0  0  0  0  0  0  0  0
   11.7818    9.4386   21.5611 O   0  0  0  0  0  0  0  0  0  0  0  0
   10.6388   10.6994   23.2029 C   0  0  0  0  0  0  0  0  0  0  0  0
    9.8758    9.5996   23.5874 C   0  0  0  0  0  0  0  0  0  0  0  0
    8.7824    9.7853   24.4262 C   0  0  0  0  0  0  0  0  0  0  0  0
    8.4541   11.0498   24.9268 C   0  0  0  0  0  0  0  0  0  0  0  0
    7.2216   11.1671   25.6027 N   0  0  0  0  0  0  0  0  0  0  0  0
    7.1578   12.1432   26.5979 N   0  0  0  0  0  0  0  0  0  0  0  0
    6.1018   12.1201   27.4850 C   0  0  0  0  0  0  0  0  0  0  0  0
    6.1837   12.7347   28.5513 O   0  0  0  0  0  0  0  0  0  0  0  0
    4.8165   11.4322   27.0855 C   0  0  0  0  0  0  0  0  0  0  0  0
    4.9972    9.6775   26.9450 Cl  0  0  0  0  0  0  0  0  0  0  0  0
    9.2338   12.1444   24.5543 C   0  0  0  0  0  0  0  0  0  0  0  0
   10.3230   11.9706   23.6962 C   0  0  0  0  0  0  0  0  0  0  0  0
  1  2  1  0
  2  3  2  0
  2  4  1  0
  4  5  2  0
  5  6  1  0
  6  7  2  0
  7  8  1  0
  8  9  1  0
  9 10  1  0
 10 11  2  0
 10 12  1  0
 12 13  1  0
  7 14  1  0
 14 15  2  0
 15  4  1  0
M  END
>  <distance_score>  (544) 
0.515704

>  <ref_pdb>  (544) 
A1776a

>  <ref_mols>  (544) 
A1776a

>  <alias>  (544) 
None

>  <original SMILES>  (544) 
NC(=O)c1ccc(NNC(=O)CCl)cc1

>  <inchikey>  (544) 
NWZXEKIZZVJCHN-UHFFFAOYSA-N

>  <exports>  (544) 
['/opt/xchem-fragalysis-2/maxwin/2A_HIPPO/hippo/A71EV2A_10_recipes/Recipe_1LPVPY0_poses.sdf']

>  <original ID>  (544) 
NWZXEKIZZVJCHN-UHFFFAOYSA-N

>  <energy_score>  (544) 
-19.480916

>  <tags>  (544) 
[]

>  <HIPPO ID>  (544) 
168754

>  <name>  (544) 
NWZXEKIZZVJCHN-UHFFFAOYSA-N

$$$$
AUSLZMDXWKAFSR-UHFFFAOYSA-N
     RDKit          3D

 15 15  0  0  0  0  0  0  0  0999 V2000
   12.4545   12.1631   21.9603 C   0  0  0  0  0  0  0  0  0  0  0  0
   11.7012   10.8839   22.2564 C   0  0  0  0  0  0  0  0  0  0  0  0
   11.9530    9.8619   21.6220 O   0  0  0  0  0  0  0  0  0  0  0  0
   10.6253   10.9219   23.2946 C   0  0  0  0  0  0  0  0  0  0  0  0
   10.2966   12.1342   23.9072 C   0  0  0  0  0  0  0  0  0  0  0  0
    9.2502   12.2283   24.8284 C   0  0  0  0  0  0  0  0  0  0  0  0
    8.4775   11.1141   25.1170 C   0  0  0  0  0  0  0  0  0  0  0  0
    7.3477   11.1471   25.9385 N   0  0  0  0  0  0  0  0  0  0  0  0
    6.9822   12.1453   26.8146 C   0  0  0  0  0  0  0  0  0  0  0  0
    7.7171   13.0546   27.1984 O   0  0  0  0  0  0  0  0  0  0  0  0
    5.5382   12.0710   27.2741 C   0  0  0  0  0  0  0  0  0  0  0  0
    4.9302   10.3980   27.2995 Cl  0  0  0  0  0  0  0  0  0  0  0  0
    8.7868    9.9064   24.5101 C   0  0  0  0  0  0  0  0  0  0  0  0
    9.8721    9.8016   23.6375 C   0  0  0  0  0  0  0  0  0  0  0  0
   10.1737    8.2378   23.0443 Cl  0  0  0  0  0  0  0  0  0  0  0  0
  1  2  1  0
  2  3  2  0
  2  4  1  0
  4  5  2  0
  5  6  1  0
  6  7  2  0
  7  8  1  0
  8  9  1  0
  9 10  2  0
  9 11  1  0
 11 12  1  0
  7 13  1  0
 13 14  2  0
 14 15  1  0
 14  4  1  0
M  END
>  <distance_score>  (545) 
0.642509

>  <ref_pdb>  (545) 
A1776a

>  <ref_mols>  (545) 
A1776a

>  <alias>  (545) 
None

>  <original SMILES>  (545) 
CC(=O)c1ccc(NC(=O)CCl)cc1Cl

>  <inchikey>  (545) 
AUSLZMDXWKAFSR-UHFFFAOYSA-N

>  <exports>  (545) 
['/opt/xchem-fragalysis-2/maxwin/2A_HIPPO/hippo/A71EV2A_10_recipes/Recipe_1LPVPY0_poses.sdf']

>  <original ID>  (545) 
AUSLZMDXWKAFSR-UHFFFAOYSA-N

>  <energy_score>  (545) 
-11.270396

>  <tags>  (545) 
[]

>  <HIPPO ID>  (545) 
168776

>  <name>  (545) 
AUSLZMDXWKAFSR-UHFFFAOYSA-N

$$$$
GEMGCDSTWPDTNL-UHFFFAOYSA-N
     RDKit          3D

 15 15  0  0  0  0  0  0  0  0999 V2000
   12.3781   11.6373   21.8078 N   0  0  0  0  0  0  0  0  0  0  0  0
   11.7209   10.4955   22.1925 C   0  0  0  0  0  0  0  0  0  0  0  0
   11.9491    9.4272   21.6407 O   0  0  0  0  0  0  0  0  0  0  0  0
   10.6766   10.6239   23.2304 C   0  0  0  0  0  0  0  0  0  0  0  0
   10.4835   11.7954   23.9602 C   0  0  0  0  0  0  0  0  0  0  0  0
    9.4405   11.8907   24.8918 C   0  0  0  0  0  0  0  0  0  0  0  0
    8.5698   10.8188   25.1121 C   0  0  0  0  0  0  0  0  0  0  0  0
    7.4242   10.9151   25.9742 N   0  0  0  0  0  0  0  0  0  0  0  0
    6.4441    9.9059   25.8761 N   0  0  0  0  0  0  0  0  0  0  0  0
    7.1470   12.0191   26.8081 C   0  0  0  0  0  0  0  0  0  0  0  0
    8.0017   12.7951   27.2499 O   0  0  0  0  0  0  0  0  0  0  0  0
    5.6740   12.2710   27.1215 C   0  0  0  0  0  0  0  0  0  0  0  0
    4.9361   11.0545   28.2394 S   0  0  0  0  0  0  0  0  0  0  0  0
    8.8133    9.6393   24.3891 C   0  0  0  0  0  0  0  0  0  0  0  0
    9.8533    9.5320   23.4681 C   0  0  0  0  0  0  0  0  0  0  0  0
  1  2  1  0
  2  3  2  0
  2  4  1  0
  4  5  2  0
  5  6  1  0
  6  7  2  0
  7  8  1  0
  8  9  1  0
  8 10  1  0
 10 11  2  0
 10 12  1  0
 12 13  1  0
  7 14  1  0
 14 15  2  0
 15  4  1  0
M  END
>  <distance_score>  (546) 
0.497383

>  <ref_pdb>  (546) 
A1776a

>  <ref_mols>  (546) 
A1776a

>  <alias>  (546) 
None

>  <original SMILES>  (546) 
NC(=O)c1ccc(N(N)C(=O)CS)cc1

>  <inchikey>  (546) 
GEMGCDSTWPDTNL-UHFFFAOYSA-N

>  <exports>  (546) 
['/opt/xchem-fragalysis-2/maxwin/2A_HIPPO/hippo/A71EV2A_10_recipes/Recipe_1LPVPY0_poses.sdf']

>  <original ID>  (546) 
GEMGCDSTWPDTNL-UHFFFAOYSA-N

>  <energy_score>  (546) 
-34.453219

>  <tags>  (546) 
[]

>  <HIPPO ID>  (546) 
168845

>  <name>  (546) 
GEMGCDSTWPDTNL-UHFFFAOYSA-N

$$$$
QLNGZBWXGBKKFQ-UHFFFAOYSA-N
     RDKit          3D

 15 15  0  0  0  0  0  0  0  0999 V2000
   12.5759   11.6401   21.8428 N   0  0  0  0  0  0  0  0  0  0  0  0
   11.7987   10.5309   22.0513 C   0  0  0  0  0  0  0  0  0  0  0  0
   11.9694    9.5115   21.3961 O   0  0  0  0  0  0  0  0  0  0  0  0
   10.7569   10.6041   23.0935 C   0  0  0  0  0  0  0  0  0  0  0  0
   10.4090   11.7973   23.7305 C   0  0  0  0  0  0  0  0  0  0  0  0
    9.3761   11.8083   24.6689 C   0  0  0  0  0  0  0  0  0  0  0  0
    8.6584   10.6406   24.9493 C   0  0  0  0  0  0  0  0  0  0  0  0
    7.6542   10.5869   25.9306 N   0  0  0  0  0  0  0  0  0  0  0  0
    6.8542   11.7224   25.9638 N   0  0  0  0  0  0  0  0  0  0  0  0
    6.1560   11.9411   27.1369 C   0  0  0  0  0  0  0  0  0  0  0  0
    6.2826   11.3146   28.1861 O   0  0  0  0  0  0  0  0  0  0  0  0
    5.1868   13.0724   26.9939 C   0  0  0  0  0  0  0  0  0  0  0  0
    3.5165   12.4559   26.8758 S   0  0  0  0  0  0  0  0  0  0  0  0
    9.0314    9.4590   24.3103 C   0  0  0  0  0  0  0  0  0  0  0  0
   10.0693    9.4314   23.3909 C   0  0  0  0  0  0  0  0  0  0  0  0
  1  2  1  0
  2  3  2  0
  2  4  1  0
  4  5  2  0
  5  6  1  0
  6  7  2  0
  7  8  1  0
  8  9  1  0
  9 10  1  0
 10 11  2  0
 10 12  1  0
 12 13  1  0
  7 14  1  0
 14 15  2  0
 15  4  1  0
M  END
>  <distance_score>  (547) 
0.893546

>  <ref_pdb>  (547) 
A1776a

>  <ref_mols>  (547) 
A1776a

>  <alias>  (547) 
None

>  <original SMILES>  (547) 
NC(=O)c1ccc(NNC(=O)CS)cc1

>  <inchikey>  (547) 
QLNGZBWXGBKKFQ-UHFFFAOYSA-N

>  <exports>  (547) 
['/opt/xchem-fragalysis-2/maxwin/2A_HIPPO/hippo/A71EV2A_10_recipes/Recipe_1LPVPY0_poses.sdf']

>  <original ID>  (547) 
QLNGZBWXGBKKFQ-UHFFFAOYSA-N

>  <energy_score>  (547) 
-45.354125

>  <tags>  (547) 
[]

>  <HIPPO ID>  (547) 
168846

>  <name>  (547) 
QLNGZBWXGBKKFQ-UHFFFAOYSA-N

$$$$
GUQVGXYHFGZTSJ-UHFFFAOYSA-N
     RDKit          3D

 15 15  0  0  0  0  0  0  0  0999 V2000
    6.7984   10.7462   29.3889 N   0  0  0  0  0  0  0  0  0  0  0  0
    5.5730   11.2920   28.7537 C   0  0  0  0  0  0  0  0  0  0  0  0
    5.8675   11.8971   27.3793 C   0  0  0  0  0  0  0  0  0  0  0  0
    5.0583   12.6002   26.7806 O   0  0  0  0  0  0  0  0  0  0  0  0
    7.0996   11.4891   26.8743 N   0  0  0  0  0  0  0  0  0  0  0  0
    7.0411   11.0474   25.5428 N   0  0  0  0  0  0  0  0  0  0  0  0
    8.2945   10.9570   24.9123 C   0  0  0  0  0  0  0  0  0  0  0  0
    9.1201   12.0558   24.6845 C   0  0  0  0  0  0  0  0  0  0  0  0
   10.2490   11.9245   23.8650 C   0  0  0  0  0  0  0  0  0  0  0  0
   10.5528   10.6954   23.2668 C   0  0  0  0  0  0  0  0  0  0  0  0
   11.6473   10.5337   22.2819 C   0  0  0  0  0  0  0  0  0  0  0  0
   12.3103   11.6661   21.8792 N   0  0  0  0  0  0  0  0  0  0  0  0
   11.9094    9.4493   21.7769 O   0  0  0  0  0  0  0  0  0  0  0  0
    9.7691    9.5810   23.5515 C   0  0  0  0  0  0  0  0  0  0  0  0
    8.6475    9.7234   24.3605 C   0  0  0  0  0  0  0  0  0  0  0  0
  1  2  1  0
  2  3  1  0
  3  4  2  0
  3  5  1  0
  5  6  1  0
  6  7  1  0
  7  8  2  0
  8  9  1  0
  9 10  2  0
 10 11  1  0
 11 12  1  0
 11 13  2  0
 10 14  1  0
 14 15  2  0
 15  7  1  0
M  END
>  <distance_score>  (548) 
0.808166

>  <ref_pdb>  (548) 
A1776a

>  <ref_mols>  (548) 
A1776a

>  <alias>  (548) 
None

>  <original SMILES>  (548) 
NCC(=O)NNc1ccc(C(N)=O)cc1

>  <inchikey>  (548) 
GUQVGXYHFGZTSJ-UHFFFAOYSA-N

>  <exports>  (548) 
['/opt/xchem-fragalysis-2/maxwin/2A_HIPPO/hippo/A71EV2A_10_recipes/Recipe_1LPVPY0_poses.sdf']

>  <original ID>  (548) 
GUQVGXYHFGZTSJ-UHFFFAOYSA-N

>  <energy_score>  (548) 
-40.250001

>  <tags>  (548) 
[]

>  <HIPPO ID>  (548) 
168910

>  <name>  (548) 
GUQVGXYHFGZTSJ-UHFFFAOYSA-N

$$$$
YIUFTQTYGAGVES-UHFFFAOYSA-N
     RDKit          3D

 15 15  0  0  0  0  0  0  0  0999 V2000
    5.7256   13.1463   28.4599 N   0  0  0  0  0  0  0  0  0  0  0  0
    5.7935   12.0917   27.4231 C   0  0  0  0  0  0  0  0  0  0  0  0
    7.2178   12.0079   26.8375 C   0  0  0  0  0  0  0  0  0  0  0  0
    8.0671   12.8302   27.1994 O   0  0  0  0  0  0  0  0  0  0  0  0
    7.4399   10.9457   25.9392 N   0  0  0  0  0  0  0  0  0  0  0  0
    6.4690    9.9282   25.7792 N   0  0  0  0  0  0  0  0  0  0  0  0
    8.5753   10.8529   25.0709 C   0  0  0  0  0  0  0  0  0  0  0  0
    8.8385    9.6507   24.3960 C   0  0  0  0  0  0  0  0  0  0  0  0
    9.8887    9.5240   23.4913 C   0  0  0  0  0  0  0  0  0  0  0  0
   10.6905   10.6235   23.2115 C   0  0  0  0  0  0  0  0  0  0  0  0
   11.7012   10.4847   22.1409 C   0  0  0  0  0  0  0  0  0  0  0  0
   12.5061   11.5621   21.8796 N   0  0  0  0  0  0  0  0  0  0  0  0
   11.8150    9.4498   21.4980 O   0  0  0  0  0  0  0  0  0  0  0  0
   10.4531   11.8298   23.8718 C   0  0  0  0  0  0  0  0  0  0  0  0
    9.4146   11.9376   24.8050 C   0  0  0  0  0  0  0  0  0  0  0  0
  1  2  1  0
  2  3  1  0
  3  4  2  0
  3  5  1  0
  5  6  1  0
  5  7  1  0
  7  8  2  0
  8  9  1  0
  9 10  2  0
 10 11  1  0
 11 12  1  0
 11 13  2  0
 10 14  1  0
 14 15  2  0
 15  7  1  0
M  END
>  <distance_score>  (549) 
0.448801

>  <ref_pdb>  (549) 
A1776a

>  <ref_mols>  (549) 
A1776a

>  <alias>  (549) 
None

>  <original SMILES>  (549) 
NCC(=O)N(N)c1ccc(C(N)=O)cc1

>  <inchikey>  (549) 
YIUFTQTYGAGVES-UHFFFAOYSA-N

>  <exports>  (549) 
['/opt/xchem-fragalysis-2/maxwin/2A_HIPPO/hippo/A71EV2A_10_recipes/Recipe_1LPVPY0_poses.sdf']

>  <original ID>  (549) 
YIUFTQTYGAGVES-UHFFFAOYSA-N

>  <energy_score>  (549) 
-28.926638

>  <tags>  (549) 
[]

>  <HIPPO ID>  (549) 
168923

>  <name>  (549) 
YIUFTQTYGAGVES-UHFFFAOYSA-N

$$$$
JPKAUFWHDJRBLB-UHFFFAOYSA-N
     RDKit          3D

 15 15  0  0  0  0  0  0  0  0999 V2000
   12.4424   12.1769   21.9770 C   0  0  0  0  0  0  0  0  0  0  0  0
   11.6924   10.8938   22.2565 C   0  0  0  0  0  0  0  0  0  0  0  0
   11.9533    9.8769   21.6171 O   0  0  0  0  0  0  0  0  0  0  0  0
   10.6102   10.9184   23.2874 C   0  0  0  0  0  0  0  0  0  0  0  0
   10.2384   12.1288   23.8811 C   0  0  0  0  0  0  0  0  0  0  0  0
    9.1931   12.1968   24.8079 C   0  0  0  0  0  0  0  0  0  0  0  0
    8.4642   11.0580   25.1180 C   0  0  0  0  0  0  0  0  0  0  0  0
    7.3636   11.0393   25.9828 N   0  0  0  0  0  0  0  0  0  0  0  0
    6.9952   12.0279   26.8689 C   0  0  0  0  0  0  0  0  0  0  0  0
    7.6674   13.0097   27.1824 O   0  0  0  0  0  0  0  0  0  0  0  0
    5.6349   11.7460   27.5191 C   0  0  0  0  0  0  0  0  0  0  0  0
    4.9839   13.0099   27.8883 N   0  0  0  0  0  0  0  0  0  0  0  0
    8.8089    9.8575   24.5161 C   0  0  0  0  0  0  0  0  0  0  0  0
    9.8967    9.7777   23.6459 C   0  0  0  0  0  0  0  0  0  0  0  0
   10.2708    8.2101   23.1038 Cl  0  0  0  0  0  0  0  0  0  0  0  0
  1  2  1  0
  2  3  2  0
  2  4  1  0
  4  5  2  0
  5  6  1  0
  6  7  2  0
  7  8  1  0
  8  9  1  0
  9 10  2  0
  9 11  1  0
 11 12  1  0
  7 13  1  0
 13 14  2  0
 14 15  1  0
 14  4  1  0
M  END
>  <distance_score>  (550) 
0.65826

>  <ref_pdb>  (550) 
A1776a

>  <ref_mols>  (550) 
A1776a

>  <alias>  (550) 
None

>  <original SMILES>  (550) 
CC(=O)c1ccc(NC(=O)CN)cc1Cl

>  <inchikey>  (550) 
JPKAUFWHDJRBLB-UHFFFAOYSA-N

>  <exports>  (550) 
['/opt/xchem-fragalysis-2/maxwin/2A_HIPPO/hippo/A71EV2A_10_recipes/Recipe_1LPVPY0_poses.sdf']

>  <original ID>  (550) 
JPKAUFWHDJRBLB-UHFFFAOYSA-N

>  <energy_score>  (550) 
-21.296893

>  <tags>  (550) 
[]

>  <HIPPO ID>  (550) 
168987

>  <name>  (550) 
JPKAUFWHDJRBLB-UHFFFAOYSA-N

$$$$
YGIXHABEYZGTKQ-SECBINFHSA-N
     RDKit          3D

 15 15  0  0  0  0  0  0  0  0999 V2000
    4.9089   12.9131   26.7755 N   0  0  0  0  0  0  0  0  0  0  0  0
    5.6612   11.7055   27.1950 C   0  0  2  0  0  0  0  0  0  0  0  0
    5.6662   11.5373   28.7127 C   0  0  0  0  0  0  0  0  0  0  0  0
    6.3252    9.9398   29.1697 Cl  0  0  0  0  0  0  0  0  0  0  0  0
    7.1096   11.8619   26.6903 C   0  0  0  0  0  0  0  0  0  0  0  0
    7.7927   12.8294   27.0237 O   0  0  0  0  0  0  0  0  0  0  0  0
    7.4890   10.8425   25.8457 N   0  0  0  0  0  0  0  0  0  0  0  0
    8.6186   10.7933   25.0164 C   0  0  0  0  0  0  0  0  0  0  0  0
    9.4894   11.8605   24.8073 C   0  0  0  0  0  0  0  0  0  0  0  0
   10.5287   11.7401   23.8814 C   0  0  0  0  0  0  0  0  0  0  0  0
   10.7003   10.5461   23.1832 C   0  0  0  0  0  0  0  0  0  0  0  0
   11.7251   10.4534   22.1393 C   0  0  0  0  0  0  0  0  0  0  0  0
   11.9011    9.4183   21.5102 O   0  0  0  0  0  0  0  0  0  0  0  0
    9.8660    9.4614   23.4178 C   0  0  0  0  0  0  0  0  0  0  0  0
    8.8238    9.5981   24.3243 C   0  0  0  0  0  0  0  0  0  0  0  0
  2  1  1  1
  2  3  1  0
  3  4  1  0
  2  5  1  0
  5  6  2  0
  5  7  1  0
  7  8  1  0
  8  9  2  0
  9 10  1  0
 10 11  2  0
 11 12  1  0
 12 13  2  0
 11 14  1  0
 14 15  2  0
 15  8  1  0
M  END
>  <distance_score>  (551) 
0.401975

>  <ref_pdb>  (551) 
A1776a

>  <ref_mols>  (551) 
A1776a

>  <alias>  (551) 
None

>  <original SMILES>  (551) 
N[C@H](CCl)C(=O)Nc1ccc(C=O)cc1

>  <inchikey>  (551) 
YGIXHABEYZGTKQ-SECBINFHSA-N

>  <exports>  (551) 
['/opt/xchem-fragalysis-2/maxwin/2A_HIPPO/hippo/A71EV2A_10_recipes/Recipe_1LPVPY0_poses.sdf']

>  <original ID>  (551) 
YGIXHABEYZGTKQ-SECBINFHSA-N

>  <energy_score>  (551) 
-22.084735

>  <tags>  (551) 
[]

>  <HIPPO ID>  (551) 
169246

>  <name>  (551) 
YGIXHABEYZGTKQ-SECBINFHSA-N

$$$$
YGIXHABEYZGTKQ-SECBINFHSA-N
     RDKit          3D

 15 15  0  0  0  0  0  0  0  0999 V2000
    6.0480   11.4542   28.8117 N   0  0  0  0  0  0  0  0  0  0  0  0
    5.8909   12.3705   27.6614 C   0  0  2  0  0  0  0  0  0  0  0  0
    4.6309   12.0452   26.8705 C   0  0  0  0  0  0  0  0  0  0  0  0
    4.1037   13.4172   25.8793 Cl  0  0  0  0  0  0  0  0  0  0  0  0
    7.2105   12.3517   26.8622 C   0  0  0  0  0  0  0  0  0  0  0  0
    8.0585   13.2090   27.1176 O   0  0  0  0  0  0  0  0  0  0  0  0
    7.4101   11.2650   26.0334 N   0  0  0  0  0  0  0  0  0  0  0  0
    8.4880   11.0729   25.1435 C   0  0  0  0  0  0  0  0  0  0  0  0
    8.6105    9.8227   24.5294 C   0  0  0  0  0  0  0  0  0  0  0  0
    9.6361    9.5652   23.6162 C   0  0  0  0  0  0  0  0  0  0  0  0
   10.5346   10.5781   23.2946 C   0  0  0  0  0  0  0  0  0  0  0  0
   11.5613   10.3737   22.2629 C   0  0  0  0  0  0  0  0  0  0  0  0
   11.6945    9.3055   21.6824 O   0  0  0  0  0  0  0  0  0  0  0  0
   10.4282   11.8275   23.8974 C   0  0  0  0  0  0  0  0  0  0  0  0
    9.4076   12.0702   24.8201 C   0  0  0  0  0  0  0  0  0  0  0  0
  2  1  1  1
  2  3  1  0
  3  4  1  0
  2  5  1  0
  5  6  2  0
  5  7  1  0
  7  8  1  0
  8  9  2  0
  9 10  1  0
 10 11  2  0
 11 12  1  0
 12 13  2  0
 11 14  1  0
 14 15  2  0
 15  8  1  0
M  END
>  <distance_score>  (552) 
0.546647

>  <ref_pdb>  (552) 
A1776a

>  <ref_mols>  (552) 
A1776a

>  <alias>  (552) 
None

>  <original SMILES>  (552) 
N[C@H](CCl)C(=O)Nc1ccc(C=O)cc1

>  <inchikey>  (552) 
YGIXHABEYZGTKQ-SECBINFHSA-N

>  <exports>  (552) 
['/opt/xchem-fragalysis-2/maxwin/2A_HIPPO/hippo/A71EV2A_10_recipes/Recipe_1LPVPY0_poses.sdf']

>  <original ID>  (552) 
YGIXHABEYZGTKQ-SECBINFHSA-N

>  <energy_score>  (552) 
-15.181924

>  <tags>  (552) 
[]

>  <HIPPO ID>  (552) 
169247

>  <name>  (552) 
YGIXHABEYZGTKQ-SECBINFHSA-N

$$$$
BGPOOUMMVZFVIR-UHFFFAOYSA-N
     RDKit          3D

 15 16  0  0  0  0  0  0  0  0999 V2000
   11.8474    9.3889   21.5533 O   0  0  0  0  0  0  0  0  0  0  0  0
   11.6813   10.4356   22.1653 C   0  0  0  0  0  0  0  0  0  0  0  0
   10.6518   10.5637   23.2020 C   0  0  0  0  0  0  0  0  0  0  0  0
    9.7934    9.5020   23.4562 C   0  0  0  0  0  0  0  0  0  0  0  0
    8.7617    9.6722   24.3724 C   0  0  0  0  0  0  0  0  0  0  0  0
    8.5914   10.8788   25.0579 C   0  0  0  0  0  0  0  0  0  0  0  0
    7.5032   10.9425   25.9456 N   0  0  0  0  0  0  0  0  0  0  0  0
    7.1772   11.9597   26.8229 C   0  0  0  0  0  0  0  0  0  0  0  0
    7.8790   12.9591   27.0165 O   0  0  0  0  0  0  0  0  0  0  0  0
    5.9057   11.7318   27.6476 C   0  0  0  0  0  0  0  0  0  0  0  0
    4.9875   10.4979   27.4881 C   0  0  0  0  0  0  0  0  0  0  0  0
    3.8491   11.3894   27.8153 N   0  0  0  0  0  0  0  0  0  0  0  0
    4.6353   12.5134   27.2474 C   0  0  0  0  0  0  0  0  0  0  0  0
    9.4768   11.9259   24.8139 C   0  0  0  0  0  0  0  0  0  0  0  0
   10.5046   11.7720   23.8796 C   0  0  0  0  0  0  0  0  0  0  0  0
  1  2  2  0
  2  3  1  0
  3  4  2  0
  4  5  1  0
  5  6  2  0
  6  7  1  0
  7  8  1  0
  8  9  2  0
  8 10  1  0
 10 11  1  0
 11 12  1  0
 12 13  1  0
  6 14  1  0
 14 15  2  0
 15  3  1  0
 13 10  1  0
M  END
>  <distance_score>  (553) 
0.435272

>  <ref_pdb>  (553) 
A1776a

>  <ref_mols>  (553) 
A1776a

>  <alias>  (553) 
None

>  <original SMILES>  (553) 
O=Cc1ccc(NC(=O)C2CNC2)cc1

>  <inchikey>  (553) 
BGPOOUMMVZFVIR-UHFFFAOYSA-N

>  <exports>  (553) 
['/opt/xchem-fragalysis-2/maxwin/2A_HIPPO/hippo/A71EV2A_10_recipes/Recipe_1LPVPY0_poses.sdf']

>  <original ID>  (553) 
BGPOOUMMVZFVIR-UHFFFAOYSA-N

>  <energy_score>  (553) 
-16.015367

>  <tags>  (553) 
[]

>  <HIPPO ID>  (553) 
169274

>  <name>  (553) 
BGPOOUMMVZFVIR-UHFFFAOYSA-N

$$$$
ZKBATALDCCJIPH-UHFFFAOYSA-N
     RDKit          3D

 15 15  0  0  0  0  0  0  0  0999 V2000
   12.4530   11.5619   21.9274 N   0  0  0  0  0  0  0  0  0  0  0  0
   11.6515   10.4821   22.1867 C   0  0  0  0  0  0  0  0  0  0  0  0
   11.7617    9.4497   21.5388 O   0  0  0  0  0  0  0  0  0  0  0  0
   10.6442   10.6184   23.2618 C   0  0  0  0  0  0  0  0  0  0  0  0
    9.8524    9.5156   23.5567 C   0  0  0  0  0  0  0  0  0  0  0  0
    8.8059    9.6376   24.4701 C   0  0  0  0  0  0  0  0  0  0  0  0
    8.5328   10.8415   25.1377 C   0  0  0  0  0  0  0  0  0  0  0  0
    7.3933   10.9518   26.0074 N   0  0  0  0  0  0  0  0  0  0  0  0
    6.4059    9.9381   25.9370 N   0  0  0  0  0  0  0  0  0  0  0  0
    7.1338   12.0805   26.8149 C   0  0  0  0  0  0  0  0  0  0  0  0
    7.9900   12.8787   27.2085 O   0  0  0  0  0  0  0  0  0  0  0  0
    5.6462   12.3241   27.1600 C   0  0  0  0  0  0  0  0  0  0  0  0
    4.8507   11.2304   27.5723 O   0  0  0  0  0  0  0  0  0  0  0  0
    9.3629   11.9305   24.8511 C   0  0  0  0  0  0  0  0  0  0  0  0
   10.3988   11.8259   23.9140 C   0  0  0  0  0  0  0  0  0  0  0  0
  1  2  1  0
  2  3  2  0
  2  4  1  0
  4  5  2  0
  5  6  1  0
  6  7  2  0
  7  8  1  0
  8  9  1  0
  8 10  1  0
 10 11  2  0
 10 12  1  0
 12 13  1  0
  7 14  1  0
 14 15  2  0
 15  4  1  0
M  END
>  <distance_score>  (554) 
0.738217

>  <ref_pdb>  (554) 
A1776a

>  <ref_mols>  (554) 
A1776a

>  <alias>  (554) 
None

>  <original SMILES>  (554) 
NC(=O)c1ccc(N(N)C(=O)CO)cc1

>  <inchikey>  (554) 
ZKBATALDCCJIPH-UHFFFAOYSA-N

>  <exports>  (554) 
['/opt/xchem-fragalysis-2/maxwin/2A_HIPPO/hippo/A71EV2A_10_recipes/Recipe_1LPVPY0_poses.sdf']

>  <original ID>  (554) 
ZKBATALDCCJIPH-UHFFFAOYSA-N

>  <energy_score>  (554) 
-36.622959

>  <tags>  (554) 
[]

>  <HIPPO ID>  (554) 
169281

>  <name>  (554) 
ZKBATALDCCJIPH-UHFFFAOYSA-N

$$$$
FVFUOBAUHQKYPP-UHFFFAOYSA-N
     RDKit          3D

 15 15  0  0  0  0  0  0  0  0999 V2000
   12.5062   11.6305   21.9021 N   0  0  0  0  0  0  0  0  0  0  0  0
   11.6922   10.5524   22.1316 C   0  0  0  0  0  0  0  0  0  0  0  0
   11.8286    9.5159   21.4947 O   0  0  0  0  0  0  0  0  0  0  0  0
   10.6552   10.6879   23.1765 C   0  0  0  0  0  0  0  0  0  0  0  0
    9.9077    9.5595   23.4892 C   0  0  0  0  0  0  0  0  0  0  0  0
    8.9025    9.6503   24.4424 C   0  0  0  0  0  0  0  0  0  0  0  0
    8.6201   10.8505   25.1117 C   0  0  0  0  0  0  0  0  0  0  0  0
    7.7149   10.7807   26.1930 N   0  0  0  0  0  0  0  0  0  0  0  0
    6.9813   11.9297   26.5030 N   0  0  0  0  0  0  0  0  0  0  0  0
    5.8260   11.8026   27.2526 C   0  0  0  0  0  0  0  0  0  0  0  0
    5.3152   12.7611   27.8237 O   0  0  0  0  0  0  0  0  0  0  0  0
    5.1907   10.4134   27.3380 C   0  0  0  0  0  0  0  0  0  0  0  0
    5.3264    9.6997   26.1170 O   0  0  0  0  0  0  0  0  0  0  0  0
    9.3770   11.9760   24.7930 C   0  0  0  0  0  0  0  0  0  0  0  0
   10.3747   11.9009   23.8136 C   0  0  0  0  0  0  0  0  0  0  0  0
  1  2  1  0
  2  3  2  0
  2  4  1  0
  4  5  2  0
  5  6  1  0
  6  7  2  0
  7  8  1  0
  8  9  1  0
  9 10  1  0
 10 11  2  0
 10 12  1  0
 12 13  1  0
  7 14  1  0
 14 15  2  0
 15  4  1  0
M  END
>  <distance_score>  (555) 
0.5246

>  <ref_pdb>  (555) 
A1776a

>  <ref_mols>  (555) 
A1776a

>  <alias>  (555) 
None

>  <original SMILES>  (555) 
NC(=O)c1ccc(NNC(=O)CO)cc1

>  <inchikey>  (555) 
FVFUOBAUHQKYPP-UHFFFAOYSA-N

>  <exports>  (555) 
['/opt/xchem-fragalysis-2/maxwin/2A_HIPPO/hippo/A71EV2A_10_recipes/Recipe_1LPVPY0_poses.sdf']

>  <original ID>  (555) 
FVFUOBAUHQKYPP-UHFFFAOYSA-N

>  <energy_score>  (555) 
-48.094247

>  <tags>  (555) 
[]

>  <HIPPO ID>  (555) 
169282

>  <name>  (555) 
FVFUOBAUHQKYPP-UHFFFAOYSA-N

$$$$
LFTXTXDITMWXDD-UHFFFAOYSA-N
     RDKit          3D

 16 16  0  0  0  0  0  0  0  0999 V2000
    4.4052   11.6429   29.4342 C   0  0  0  0  0  0  0  0  0  0  0  0
    5.6107   11.6628   28.8526 C   0  0  0  0  0  0  0  0  0  0  0  0
    7.0184   11.2948   29.7746 Cl  0  0  0  0  0  0  0  0  0  0  0  0
    5.7285   11.9436   27.3854 C   0  0  0  0  0  0  0  0  0  0  0  0
    4.7448   12.2289   26.7059 O   0  0  0  0  0  0  0  0  0  0  0  0
    7.0090   11.7866   26.8658 N   0  0  0  0  0  0  0  0  0  0  0  0
    7.0185   11.0321   25.6739 N   0  0  0  0  0  0  0  0  0  0  0  0
    8.2647   10.9661   25.0184 C   0  0  0  0  0  0  0  0  0  0  0  0
    9.0472   12.0821   24.7311 C   0  0  0  0  0  0  0  0  0  0  0  0
   10.1570   11.9609   23.8840 C   0  0  0  0  0  0  0  0  0  0  0  0
   10.4988   10.7206   23.3275 C   0  0  0  0  0  0  0  0  0  0  0  0
   11.5562   10.5734   22.2986 C   0  0  0  0  0  0  0  0  0  0  0  0
   12.3563   11.6603   22.0667 N   0  0  0  0  0  0  0  0  0  0  0  0
   11.7049    9.5357   21.6654 O   0  0  0  0  0  0  0  0  0  0  0  0
    9.7411    9.5975   23.6426 C   0  0  0  0  0  0  0  0  0  0  0  0
    8.6267    9.7344   24.4642 C   0  0  0  0  0  0  0  0  0  0  0  0
  1  2  2  0
  2  3  1  0
  2  4  1  0
  4  5  2  0
  4  6  1  0
  6  7  1  0
  7  8  1  0
  8  9  2  0
  9 10  1  0
 10 11  2  0
 11 12  1  0
 12 13  1  0
 12 14  2  0
 11 15  1  0
 15 16  2  0
 16  8  1  0
M  END
>  <distance_score>  (556) 
0.69248

>  <ref_pdb>  (556) 
A1776a

>  <ref_mols>  (556) 
A1776a

>  <alias>  (556) 
None

>  <original SMILES>  (556) 
C=C(Cl)C(=O)NNc1ccc(C(N)=O)cc1

>  <inchikey>  (556) 
LFTXTXDITMWXDD-UHFFFAOYSA-N

>  <exports>  (556) 
['/opt/xchem-fragalysis-2/maxwin/2A_HIPPO/hippo/A71EV2A_10_recipes/Recipe_1LPVPY0_poses.sdf']

>  <original ID>  (556) 
LFTXTXDITMWXDD-UHFFFAOYSA-N

>  <energy_score>  (556) 
-11.615872

>  <tags>  (556) 
[]

>  <HIPPO ID>  (556) 
170576

>  <name>  (556) 
LFTXTXDITMWXDD-UHFFFAOYSA-N

$$$$
KUIRRMRGVHNZGG-UHFFFAOYSA-N
     RDKit          3D

 16 16  0  0  0  0  0  0  0  0999 V2000
    4.7955   12.7103   26.8600 C   0  0  0  0  0  0  0  0  0  0  0  0
    5.8104   12.1447   27.5230 C   0  0  0  0  0  0  0  0  0  0  0  0
    5.6219   11.4610   29.0881 Cl  0  0  0  0  0  0  0  0  0  0  0  0
    7.1756   12.0845   26.9174 C   0  0  0  0  0  0  0  0  0  0  0  0
    7.9968   12.9479   27.2291 O   0  0  0  0  0  0  0  0  0  0  0  0
    7.3868   10.9837   26.0609 N   0  0  0  0  0  0  0  0  0  0  0  0
    6.3920    9.9757   26.0469 N   0  0  0  0  0  0  0  0  0  0  0  0
    8.4937   10.8694   25.1544 C   0  0  0  0  0  0  0  0  0  0  0  0
    8.7333    9.6714   24.4652 C   0  0  0  0  0  0  0  0  0  0  0  0
    9.7797    9.5351   23.5517 C   0  0  0  0  0  0  0  0  0  0  0  0
   10.6021   10.6202   23.2740 C   0  0  0  0  0  0  0  0  0  0  0  0
   11.6170   10.4721   22.2066 C   0  0  0  0  0  0  0  0  0  0  0  0
   12.4265   11.5460   21.9480 N   0  0  0  0  0  0  0  0  0  0  0  0
   11.7275    9.4373   21.5626 O   0  0  0  0  0  0  0  0  0  0  0  0
   10.3800   11.8260   23.9373 C   0  0  0  0  0  0  0  0  0  0  0  0
    9.3460   11.9428   24.8754 C   0  0  0  0  0  0  0  0  0  0  0  0
  1  2  2  0
  2  3  1  0
  2  4  1  0
  4  5  2  0
  4  6  1  0
  6  7  1  0
  6  8  1  0
  8  9  2  0
  9 10  1  0
 10 11  2  0
 11 12  1  0
 12 13  1  0
 12 14  2  0
 11 15  1  0
 15 16  2  0
 16  8  1  0
M  END
>  <distance_score>  (557) 
0.512423

>  <ref_pdb>  (557) 
A1776a

>  <ref_mols>  (557) 
A1776a

>  <alias>  (557) 
None

>  <original SMILES>  (557) 
C=C(Cl)C(=O)N(N)c1ccc(C(N)=O)cc1

>  <inchikey>  (557) 
KUIRRMRGVHNZGG-UHFFFAOYSA-N

>  <exports>  (557) 
['/opt/xchem-fragalysis-2/maxwin/2A_HIPPO/hippo/A71EV2A_10_recipes/Recipe_1LPVPY0_poses.sdf']

>  <original ID>  (557) 
KUIRRMRGVHNZGG-UHFFFAOYSA-N

>  <energy_score>  (557) 
-46.776292

>  <tags>  (557) 
[]

>  <HIPPO ID>  (557) 
170577

>  <name>  (557) 
KUIRRMRGVHNZGG-UHFFFAOYSA-N

$$$$
WXXOPIIJGMZRQY-UHFFFAOYSA-N
     RDKit          3D

 16 16  0  0  0  0  0  0  0  0999 V2000
    4.9392   10.3719   27.5440 C   0  0  0  0  0  0  0  0  0  0  0  0
    5.5518   11.5552   27.3974 C   0  0  0  0  0  0  0  0  0  0  0  0
    4.8035   12.9797   28.0166 Cl  0  0  0  0  0  0  0  0  0  0  0  0
    6.9261   11.7075   26.8164 C   0  0  0  0  0  0  0  0  0  0  0  0
    7.6954   12.5551   27.2596 O   0  0  0  0  0  0  0  0  0  0  0  0
    7.1968   10.7990   25.8074 N   0  0  0  0  0  0  0  0  0  0  0  0
    8.3668   10.7032   25.0435 C   0  0  0  0  0  0  0  0  0  0  0  0
    8.4967    9.6508   24.1396 C   0  0  0  0  0  0  0  0  0  0  0  0
    9.5829    9.5414   23.2638 C   0  0  0  0  0  0  0  0  0  0  0  0
   10.5872   10.4901   23.3169 C   0  0  0  0  0  0  0  0  0  0  0  0
   11.6434   10.5232   22.2724 C   0  0  0  0  0  0  0  0  0  0  0  0
   12.2875   11.8598   21.9062 C   0  0  0  0  0  0  0  0  0  0  0  0
   11.8816    9.4905   21.6487 O   0  0  0  0  0  0  0  0  0  0  0  0
   10.5285   11.4037   24.3520 C   0  0  0  0  0  0  0  0  0  0  0  0
   11.9217   12.1291   24.9253 Cl  0  0  0  0  0  0  0  0  0  0  0  0
    9.4129   11.5786   25.1577 C   0  0  0  0  0  0  0  0  0  0  0  0
  1  2  2  0
  2  3  1  0
  2  4  1  0
  4  5  2  0
  4  6  1  0
  6  7  1  0
  7  8  2  0
  8  9  1  0
  9 10  2  0
 10 11  1  0
 11 12  1  0
 11 13  2  0
 10 14  1  0
 14 15  1  0
 14 16  2  0
 16  7  1  0
M  END
>  <distance_score>  (558) 
0.949154

>  <ref_pdb>  (558) 
A1776a

>  <ref_mols>  (558) 
A1776a

>  <alias>  (558) 
None

>  <original SMILES>  (558) 
C=C(Cl)C(=O)Nc1ccc(C(C)=O)c(Cl)c1

>  <inchikey>  (558) 
WXXOPIIJGMZRQY-UHFFFAOYSA-N

>  <exports>  (558) 
['/opt/xchem-fragalysis-2/maxwin/2A_HIPPO/hippo/A71EV2A_10_recipes/Recipe_1LPVPY0_poses.sdf']

>  <original ID>  (558) 
WXXOPIIJGMZRQY-UHFFFAOYSA-N

>  <energy_score>  (558) 
-11.304414

>  <tags>  (558) 
[]

>  <HIPPO ID>  (558) 
170629

>  <name>  (558) 
WXXOPIIJGMZRQY-UHFFFAOYSA-N

$$$$
SKIQDHSYVQPQOQ-UHFFFAOYSA-N
     RDKit          3D

 16 17  0  0  0  0  0  0  0  0999 V2000
   12.4260   12.0259   21.9224 C   0  0  0  0  0  0  0  0  0  0  0  0
   11.6866   10.7379   22.2438 C   0  0  0  0  0  0  0  0  0  0  0  0
   11.8934    9.6870   21.6389 O   0  0  0  0  0  0  0  0  0  0  0  0
   10.6374   10.7775   23.2908 C   0  0  0  0  0  0  0  0  0  0  0  0
   10.4263   11.9276   24.0455 C   0  0  0  0  0  0  0  0  0  0  0  0
    9.3816   11.9987   24.9623 C   0  0  0  0  0  0  0  0  0  0  0  0
    8.5212   10.9208   25.1264 C   0  0  0  0  0  0  0  0  0  0  0  0
    7.3998   10.9568   25.9725 N   0  0  0  0  0  0  0  0  0  0  0  0
    7.1004   11.9315   26.9100 C   0  0  0  0  0  0  0  0  0  0  0  0
    7.8889   12.8042   27.2854 O   0  0  0  0  0  0  0  0  0  0  0  0
    5.6850   11.7800   27.5103 C   0  0  0  0  0  0  0  0  0  0  0  0
    4.5940   12.7118   26.9585 C   0  0  0  0  0  0  0  0  0  0  0  0
    4.0967   12.9211   28.3354 N   0  0  0  0  0  0  0  0  0  0  0  0
    5.4113   12.4890   28.8526 C   0  0  0  0  0  0  0  0  0  0  0  0
    8.7425    9.7600   24.3815 C   0  0  0  0  0  0  0  0  0  0  0  0
    9.8047    9.6763   23.4792 C   0  0  0  0  0  0  0  0  0  0  0  0
  1  2  1  0
  2  3  2  0
  2  4  1  0
  4  5  2  0
  5  6  1  0
  6  7  2  0
  7  8  1  0
  8  9  1  0
  9 10  2  0
  9 11  1  0
 11 12  1  0
 12 13  1  0
 13 14  1  0
  7 15  1  0
 15 16  2  0
 16  4  1  0
 14 11  1  0
M  END
>  <distance_score>  (559) 
0.561328

>  <ref_pdb>  (559) 
A1776a

>  <ref_mols>  (559) 
A1776a

>  <alias>  (559) 
None

>  <original SMILES>  (559) 
CC(=O)c1ccc(NC(=O)C2CNC2)cc1

>  <inchikey>  (559) 
SKIQDHSYVQPQOQ-UHFFFAOYSA-N

>  <exports>  (559) 
['/opt/xchem-fragalysis-2/maxwin/2A_HIPPO/hippo/A71EV2A_10_recipes/Recipe_1LPVPY0_poses.sdf']

>  <original ID>  (559) 
SKIQDHSYVQPQOQ-UHFFFAOYSA-N

>  <energy_score>  (559) 
-19.460836

>  <tags>  (559) 
[]

>  <HIPPO ID>  (559) 
171286

>  <name>  (559) 
SKIQDHSYVQPQOQ-UHFFFAOYSA-N

$$$$
XSYOCRFSZCGCDT-JTQLQIEISA-N
     RDKit          3D

 16 16  0  0  0  0  0  0  0  0999 V2000
   12.4358   12.0190   21.9262 C   0  0  0  0  0  0  0  0  0  0  0  0
   11.6558   10.7551   22.2494 C   0  0  0  0  0  0  0  0  0  0  0  0
   11.8560    9.6878   21.6714 O   0  0  0  0  0  0  0  0  0  0  0  0
   10.5832   10.8384   23.2717 C   0  0  0  0  0  0  0  0  0  0  0  0
    9.7999    9.7196   23.5555 C   0  0  0  0  0  0  0  0  0  0  0  0
    8.7410    9.8237   24.4631 C   0  0  0  0  0  0  0  0  0  0  0  0
    8.4785   11.0274   25.1231 C   0  0  0  0  0  0  0  0  0  0  0  0
    7.4079   11.0705   26.0378 N   0  0  0  0  0  0  0  0  0  0  0  0
    7.1693   12.0797   26.9554 C   0  0  0  0  0  0  0  0  0  0  0  0
    7.9356   13.0124   27.2085 O   0  0  0  0  0  0  0  0  0  0  0  0
    5.9016   11.8868   27.8143 C   0  0  1  0  0  0  0  0  0  0  0  0
    5.8245   12.9761   28.8249 N   0  0  0  0  0  0  0  0  0  0  0  0
    4.6153   11.8119   27.0044 C   0  0  0  0  0  0  0  0  0  0  0  0
    4.1419   13.3667   26.2953 Cl  0  0  0  0  0  0  0  0  0  0  0  0
    9.2657   12.1356   24.8336 C   0  0  0  0  0  0  0  0  0  0  0  0
   10.3035   12.0426   23.9108 C   0  0  0  0  0  0  0  0  0  0  0  0
  1  2  1  0
  2  3  2  0
  2  4  1  0
  4  5  2  0
  5  6  1  0
  6  7  2  0
  7  8  1  0
  8  9  1  0
  9 10  2  0
  9 11  1  0
 11 12  1  1
 11 13  1  0
 13 14  1  0
  7 15  1  0
 15 16  2  0
 16  4  1  0
M  END
>  <distance_score>  (560) 
0.917328

>  <ref_pdb>  (560) 
A1776a

>  <ref_mols>  (560) 
A1776a

>  <alias>  (560) 
None

>  <original SMILES>  (560) 
CC(=O)c1ccc(NC(=O)[C@@H](N)CCl)cc1

>  <inchikey>  (560) 
XSYOCRFSZCGCDT-JTQLQIEISA-N

>  <exports>  (560) 
['/opt/xchem-fragalysis-2/maxwin/2A_HIPPO/hippo/A71EV2A_10_recipes/Recipe_1LPVPY0_poses.sdf']

>  <original ID>  (560) 
XSYOCRFSZCGCDT-JTQLQIEISA-N

>  <energy_score>  (560) 
-16.099809

>  <tags>  (560) 
[]

>  <HIPPO ID>  (560) 
171416

>  <name>  (560) 
XSYOCRFSZCGCDT-JTQLQIEISA-N

$$$$
XSYOCRFSZCGCDT-SNVBAGLBSA-N
     RDKit          3D

 16 16  0  0  0  0  0  0  0  0999 V2000
   12.4540   12.0322   21.9051 C   0  0  0  0  0  0  0  0  0  0  0  0
   11.7064   10.7478   22.2199 C   0  0  0  0  0  0  0  0  0  0  0  0
   11.9158    9.6951   21.6188 O   0  0  0  0  0  0  0  0  0  0  0  0
   10.6499   10.7885   23.2586 C   0  0  0  0  0  0  0  0  0  0  0  0
   10.3908   11.9570   23.9683 C   0  0  0  0  0  0  0  0  0  0  0  0
    9.3482   12.0150   24.8886 C   0  0  0  0  0  0  0  0  0  0  0  0
    8.5362   10.9072   25.0997 C   0  0  0  0  0  0  0  0  0  0  0  0
    7.4294   10.9143   25.9673 N   0  0  0  0  0  0  0  0  0  0  0  0
    7.0513   11.9472   26.8072 C   0  0  0  0  0  0  0  0  0  0  0  0
    7.6995   12.9669   27.0394 O   0  0  0  0  0  0  0  0  0  0  0  0
    5.7024   11.6999   27.5086 C   0  0  2  0  0  0  0  0  0  0  0  0
    4.9769   12.9809   27.6471 N   0  0  0  0  0  0  0  0  0  0  0  0
    5.9434   11.0336   28.8658 C   0  0  0  0  0  0  0  0  0  0  0  0
    6.7588   12.1201   30.0371 Cl  0  0  0  0  0  0  0  0  0  0  0  0
    8.8017    9.7318   24.3927 C   0  0  0  0  0  0  0  0  0  0  0  0
    9.8614    9.6623   23.4868 C   0  0  0  0  0  0  0  0  0  0  0  0
  1  2  1  0
  2  3  2  0
  2  4  1  0
  4  5  2  0
  5  6  1  0
  6  7  2  0
  7  8  1  0
  8  9  1  0
  9 10  2  0
  9 11  1  0
 11 12  1  1
 11 13  1  0
 13 14  1  0
  7 15  1  0
 15 16  2  0
 16  4  1  0
M  END
>  <distance_score>  (561) 
0.559855

>  <ref_pdb>  (561) 
A1776a

>  <ref_mols>  (561) 
A1776a

>  <alias>  (561) 
None

>  <original SMILES>  (561) 
CC(=O)c1ccc(NC(=O)[C@H](N)CCl)cc1

>  <inchikey>  (561) 
XSYOCRFSZCGCDT-SNVBAGLBSA-N

>  <exports>  (561) 
['/opt/xchem-fragalysis-2/maxwin/2A_HIPPO/hippo/A71EV2A_10_recipes/Recipe_1LPVPY0_poses.sdf']

>  <original ID>  (561) 
XSYOCRFSZCGCDT-SNVBAGLBSA-N

>  <energy_score>  (561) 
-16.636035

>  <tags>  (561) 
[]

>  <HIPPO ID>  (561) 
171417

>  <name>  (561) 
XSYOCRFSZCGCDT-SNVBAGLBSA-N

$$$$
OXNZLUFVBGSSOJ-UHFFFAOYSA-N
     RDKit          3D

 16 16  0  0  0  0  0  0  0  0999 V2000
    3.8148   10.6464   27.5535 N   0  0  0  0  0  0  0  0  0  0  0  0
    4.9236   10.6919   26.7466 C   0  0  0  0  0  0  0  0  0  0  0  0
    5.3095    9.7371   26.0896 O   0  0  0  0  0  0  0  0  0  0  0  0
    5.6728   12.0334   26.7757 C   0  0  0  0  0  0  0  0  0  0  0  0
    5.0994   12.9958   27.2731 O   0  0  0  0  0  0  0  0  0  0  0  0
    6.9680   12.0735   26.2888 N   0  0  0  0  0  0  0  0  0  0  0  0
    7.6822   10.8790   26.1112 N   0  0  0  0  0  0  0  0  0  0  0  0
    8.6326   10.8876   25.0630 C   0  0  0  0  0  0  0  0  0  0  0  0
    9.4161   11.9940   24.7355 C   0  0  0  0  0  0  0  0  0  0  0  0
   10.4217   11.8881   23.7699 C   0  0  0  0  0  0  0  0  0  0  0  0
   10.6862   10.6604   23.1567 C   0  0  0  0  0  0  0  0  0  0  0  0
   11.7132   10.5019   22.1055 C   0  0  0  0  0  0  0  0  0  0  0  0
   12.5360   11.5680   21.8518 N   0  0  0  0  0  0  0  0  0  0  0  0
   11.8326    9.4576   21.4792 O   0  0  0  0  0  0  0  0  0  0  0  0
    9.9257    9.5453   23.4921 C   0  0  0  0  0  0  0  0  0  0  0  0
    8.9113    9.6668   24.4337 C   0  0  0  0  0  0  0  0  0  0  0  0
  1  2  1  0
  2  3  2  0
  2  4  1  0
  4  5  2  0
  4  6  1  0
  6  7  1  0
  7  8  1  0
  8  9  2  0
  9 10  1  0
 10 11  2  0
 11 12  1  0
 12 13  1  0
 12 14  2  0
 11 15  1  0
 15 16  2  0
 16  8  1  0
M  END
>  <distance_score>  (562) 
0.520027

>  <ref_pdb>  (562) 
A1776a

>  <ref_mols>  (562) 
A1776a

>  <alias>  (562) 
None

>  <original SMILES>  (562) 
NC(=O)C(=O)NNc1ccc(C(N)=O)cc1

>  <inchikey>  (562) 
OXNZLUFVBGSSOJ-UHFFFAOYSA-N

>  <exports>  (562) 
['/opt/xchem-fragalysis-2/maxwin/2A_HIPPO/hippo/A71EV2A_10_recipes/Recipe_1LPVPY0_poses.sdf']

>  <original ID>  (562) 
OXNZLUFVBGSSOJ-UHFFFAOYSA-N

>  <energy_score>  (562) 
-44.52435

>  <tags>  (562) 
[]

>  <HIPPO ID>  (562) 
173272

>  <name>  (562) 
OXNZLUFVBGSSOJ-UHFFFAOYSA-N

$$$$
SUCVUJQIHMMHML-UHFFFAOYSA-N
     RDKit          3D

 16 16  0  0  0  0  0  0  0  0999 V2000
   12.4694   12.1519   21.9474 C   0  0  0  0  0  0  0  0  0  0  0  0
   11.7063   10.8772   22.2411 C   0  0  0  0  0  0  0  0  0  0  0  0
   11.9544    9.8521   21.6099 O   0  0  0  0  0  0  0  0  0  0  0  0
   10.6272   10.9229   23.2749 C   0  0  0  0  0  0  0  0  0  0  0  0
   10.2832   12.1449   23.8576 C   0  0  0  0  0  0  0  0  0  0  0  0
    9.2447   12.2423   24.7859 C   0  0  0  0  0  0  0  0  0  0  0  0
    8.4930   11.1228   25.1133 C   0  0  0  0  0  0  0  0  0  0  0  0
    7.3911   11.1626   25.9742 N   0  0  0  0  0  0  0  0  0  0  0  0
    7.0744   12.1953   26.8287 C   0  0  0  0  0  0  0  0  0  0  0  0
    7.7665   13.1431   27.1676 O   0  0  0  0  0  0  0  0  0  0  0  0
    5.6625   12.0485   27.4022 C   0  0  0  0  0  0  0  0  0  0  0  0
    4.6606   12.4125   26.5461 N   0  0  0  0  0  0  0  0  0  0  0  0
    5.4786   11.5949   28.5188 O   0  0  0  0  0  0  0  0  0  0  0  0
    8.8081    9.9080   24.5244 C   0  0  0  0  0  0  0  0  0  0  0  0
    9.8905    9.7996   23.6466 C   0  0  0  0  0  0  0  0  0  0  0  0
   10.2252    8.2243   23.0991 Cl  0  0  0  0  0  0  0  0  0  0  0  0
  1  2  1  0
  2  3  2  0
  2  4  1  0
  4  5  2  0
  5  6  1  0
  6  7  2  0
  7  8  1  0
  8  9  1  0
  9 10  2  0
  9 11  1  0
 11 12  1  0
 11 13  2  0
  7 14  1  0
 14 15  2  0
 15 16  1  0
 15  4  1  0
M  END
>  <distance_score>  (563) 
0.601974

>  <ref_pdb>  (563) 
A1776a

>  <ref_mols>  (563) 
A1776a

>  <alias>  (563) 
None

>  <original SMILES>  (563) 
CC(=O)c1ccc(NC(=O)C(N)=O)cc1Cl

>  <inchikey>  (563) 
SUCVUJQIHMMHML-UHFFFAOYSA-N

>  <exports>  (563) 
['/opt/xchem-fragalysis-2/maxwin/2A_HIPPO/hippo/A71EV2A_10_recipes/Recipe_1LPVPY0_poses.sdf']

>  <original ID>  (563) 
SUCVUJQIHMMHML-UHFFFAOYSA-N

>  <energy_score>  (563) 
-23.988659

>  <tags>  (563) 
[]

>  <HIPPO ID>  (563) 
173290

>  <name>  (563) 
SUCVUJQIHMMHML-UHFFFAOYSA-N

$$$$
HVJGMTKCDNKPNS-UHFFFAOYSA-N
     RDKit          3D

 16 16  0  0  0  0  0  0  0  0999 V2000
    4.8284   12.7235   26.5781 N   0  0  0  0  0  0  0  0  0  0  0  0
    5.7517   12.1089   27.3899 C   0  0  0  0  0  0  0  0  0  0  0  0
    5.4742   11.6340   28.4803 O   0  0  0  0  0  0  0  0  0  0  0  0
    7.1783   12.0513   26.8245 C   0  0  0  0  0  0  0  0  0  0  0  0
    7.9497   12.9498   27.1449 O   0  0  0  0  0  0  0  0  0  0  0  0
    7.4209   10.9472   25.9867 N   0  0  0  0  0  0  0  0  0  0  0  0
    6.4213    9.9480   25.9345 N   0  0  0  0  0  0  0  0  0  0  0  0
    8.5461   10.8379   25.1037 C   0  0  0  0  0  0  0  0  0  0  0  0
    8.7747    9.6509   24.3910 C   0  0  0  0  0  0  0  0  0  0  0  0
    9.8149    9.5259   23.4704 C   0  0  0  0  0  0  0  0  0  0  0  0
   10.6531   10.6062   23.2257 C   0  0  0  0  0  0  0  0  0  0  0  0
   11.7036   10.4614   22.1962 C   0  0  0  0  0  0  0  0  0  0  0  0
   12.3691   11.5957   21.8042 N   0  0  0  0  0  0  0  0  0  0  0  0
   11.9309    9.3866   21.6578 O   0  0  0  0  0  0  0  0  0  0  0  0
   10.4726   11.7851   23.9450 C   0  0  0  0  0  0  0  0  0  0  0  0
    9.4302   11.8979   24.8742 C   0  0  0  0  0  0  0  0  0  0  0  0
  1  2  1  0
  2  3  2  0
  2  4  1  0
  4  5  2  0
  4  6  1  0
  6  7  1  0
  6  8  1  0
  8  9  2  0
  9 10  1  0
 10 11  2  0
 11 12  1  0
 12 13  1  0
 12 14  2  0
 11 15  1  0
 15 16  2  0
 16  8  1  0
M  END
>  <distance_score>  (564) 
0.435382

>  <ref_pdb>  (564) 
A1776a

>  <ref_mols>  (564) 
A1776a

>  <alias>  (564) 
None

>  <original SMILES>  (564) 
NC(=O)C(=O)N(N)c1ccc(C(N)=O)cc1

>  <inchikey>  (564) 
HVJGMTKCDNKPNS-UHFFFAOYSA-N

>  <exports>  (564) 
['/opt/xchem-fragalysis-2/maxwin/2A_HIPPO/hippo/A71EV2A_10_recipes/Recipe_1LPVPY0_poses.sdf']

>  <original ID>  (564) 
HVJGMTKCDNKPNS-UHFFFAOYSA-N

>  <energy_score>  (564) 
-51.975461

>  <tags>  (564) 
[]

>  <HIPPO ID>  (564) 
173301

>  <name>  (564) 
HVJGMTKCDNKPNS-UHFFFAOYSA-N

$$$$
IQHMMJMHTJVWIS-UHFFFAOYSA-N
     RDKit          3D

 16 16  0  0  0  0  0  0  0  0999 V2000
    4.0000   14.0698   24.3200 C   0  0  0  0  0  0  0  0  0  0  0  0
    5.0419   13.6153   25.1736 O   0  0  0  0  0  0  0  0  0  0  0  0
    4.5751   12.9244   26.3308 C   0  0  0  0  0  0  0  0  0  0  0  0
    5.6858   12.0648   26.9309 C   0  0  0  0  0  0  0  0  0  0  0  0
    5.5497   11.4362   27.9780 O   0  0  0  0  0  0  0  0  0  0  0  0
    6.8175   12.0539   26.1248 N   0  0  0  0  0  0  0  0  0  0  0  0
    7.6044   10.8893   26.1727 N   0  0  0  0  0  0  0  0  0  0  0  0
    8.5744   10.8434   25.1485 C   0  0  0  0  0  0  0  0  0  0  0  0
    9.3681   11.9493   24.8314 C   0  0  0  0  0  0  0  0  0  0  0  0
   10.3706   11.8519   23.8644 C   0  0  0  0  0  0  0  0  0  0  0  0
   10.6184   10.6319   23.2302 C   0  0  0  0  0  0  0  0  0  0  0  0
   11.6397   10.4843   22.1699 C   0  0  0  0  0  0  0  0  0  0  0  0
   12.4557   11.5566   21.9217 N   0  0  0  0  0  0  0  0  0  0  0  0
   11.7588    9.4483   21.5296 O   0  0  0  0  0  0  0  0  0  0  0  0
    9.8437    9.5199   23.5514 C   0  0  0  0  0  0  0  0  0  0  0  0
    8.8309    9.6341   24.4996 C   0  0  0  0  0  0  0  0  0  0  0  0
  1  2  1  0
  2  3  1  0
  3  4  1  0
  4  5  2  0
  4  6  1  0
  6  7  1  0
  7  8  1  0
  8  9  2  0
  9 10  1  0
 10 11  2  0
 11 12  1  0
 12 13  1  0
 12 14  2  0
 11 15  1  0
 15 16  2  0
 16  8  1  0
M  END
>  <distance_score>  (565) 
0.817951

>  <ref_pdb>  (565) 
A1776a

>  <ref_mols>  (565) 
A1776a

>  <alias>  (565) 
None

>  <original SMILES>  (565) 
COCC(=O)NNc1ccc(C(N)=O)cc1

>  <inchikey>  (565) 
IQHMMJMHTJVWIS-UHFFFAOYSA-N

>  <exports>  (565) 
['/opt/xchem-fragalysis-2/maxwin/2A_HIPPO/hippo/A71EV2A_10_recipes/Recipe_1LPVPY0_poses.sdf']

>  <original ID>  (565) 
IQHMMJMHTJVWIS-UHFFFAOYSA-N

>  <energy_score>  (565) 
-58.126876

>  <tags>  (565) 
[]

>  <HIPPO ID>  (565) 
174587

>  <name>  (565) 
IQHMMJMHTJVWIS-UHFFFAOYSA-N

$$$$
FQFBFSLDCXVGTL-UHFFFAOYSA-N
     RDKit          3D

 16 16  0  0  0  0  0  0  0  0999 V2000
    4.2225   13.1320   28.9746 C   0  0  0  0  0  0  0  0  0  0  0  0
    5.5527   13.1563   28.4775 O   0  0  0  0  0  0  0  0  0  0  0  0
    5.7735   12.0938   27.5564 C   0  0  0  0  0  0  0  0  0  0  0  0
    7.1921   12.0593   26.9506 C   0  0  0  0  0  0  0  0  0  0  0  0
    8.0468   12.8919   27.2607 O   0  0  0  0  0  0  0  0  0  0  0  0
    7.3997   10.9706   26.0682 N   0  0  0  0  0  0  0  0  0  0  0  0
    6.3913    9.9790   26.0238 N   0  0  0  0  0  0  0  0  0  0  0  0
    8.5048   10.8639   25.1584 C   0  0  0  0  0  0  0  0  0  0  0  0
    9.3528   11.9404   24.8802 C   0  0  0  0  0  0  0  0  0  0  0  0
   10.3843   11.8287   23.9387 C   0  0  0  0  0  0  0  0  0  0  0  0
   10.6081   10.6249   23.2720 C   0  0  0  0  0  0  0  0  0  0  0  0
   11.6226   10.4795   22.2038 C   0  0  0  0  0  0  0  0  0  0  0  0
   12.4309   11.5544   21.9460 N   0  0  0  0  0  0  0  0  0  0  0  0
   11.7335    9.4449   21.5592 O   0  0  0  0  0  0  0  0  0  0  0  0
    9.7891    9.5370   23.5483 C   0  0  0  0  0  0  0  0  0  0  0  0
    8.7450    9.6682   24.4646 C   0  0  0  0  0  0  0  0  0  0  0  0
  1  2  1  0
  2  3  1  0
  3  4  1  0
  4  5  2  0
  4  6  1  0
  6  7  1  0
  6  8  1  0
  8  9  2  0
  9 10  1  0
 10 11  2  0
 11 12  1  0
 12 13  1  0
 12 14  2  0
 11 15  1  0
 15 16  2  0
 16  8  1  0
M  END
>  <distance_score>  (566) 
0.511402

>  <ref_pdb>  (566) 
A1776a

>  <ref_mols>  (566) 
A1776a

>  <alias>  (566) 
None

>  <original SMILES>  (566) 
COCC(=O)N(N)c1ccc(C(N)=O)cc1

>  <inchikey>  (566) 
FQFBFSLDCXVGTL-UHFFFAOYSA-N

>  <exports>  (566) 
['/opt/xchem-fragalysis-2/maxwin/2A_HIPPO/hippo/A71EV2A_10_recipes/Recipe_1LPVPY0_poses.sdf']

>  <original ID>  (566) 
FQFBFSLDCXVGTL-UHFFFAOYSA-N

>  <energy_score>  (566) 
-54.665514

>  <tags>  (566) 
[]

>  <HIPPO ID>  (566) 
174600

>  <name>  (566) 
FQFBFSLDCXVGTL-UHFFFAOYSA-N

$$$$
BIOPRKYIIXEEOV-UHFFFAOYSA-N
     RDKit          3D

 16 16  0  0  0  0  0  0  0  0999 V2000
    4.4135    9.5029   27.1548 C   0  0  0  0  0  0  0  0  0  0  0  0
    5.4251   10.2584   27.7971 O   0  0  0  0  0  0  0  0  0  0  0  0
    5.5350   11.5970   27.3242 C   0  0  0  0  0  0  0  0  0  0  0  0
    6.9278   11.8082   26.7407 C   0  0  0  0  0  0  0  0  0  0  0  0
    7.6178   12.7722   27.0619 O   0  0  0  0  0  0  0  0  0  0  0  0
    7.2596   10.8054   25.8414 N   0  0  0  0  0  0  0  0  0  0  0  0
    8.4010   10.7136   25.0453 C   0  0  0  0  0  0  0  0  0  0  0  0
    8.5304    9.6383   24.1679 C   0  0  0  0  0  0  0  0  0  0  0  0
    9.6020    9.5297   23.2740 C   0  0  0  0  0  0  0  0  0  0  0  0
   10.5975   10.4903   23.2988 C   0  0  0  0  0  0  0  0  0  0  0  0
   11.6534   10.5155   22.2540 C   0  0  0  0  0  0  0  0  0  0  0  0
   12.3048   11.8486   21.8836 C   0  0  0  0  0  0  0  0  0  0  0  0
   11.8888    9.4795   21.6348 O   0  0  0  0  0  0  0  0  0  0  0  0
   10.5386   11.4250   24.3146 C   0  0  0  0  0  0  0  0  0  0  0  0
   11.9372   12.1318   24.8974 Cl  0  0  0  0  0  0  0  0  0  0  0  0
    9.4273   11.6148   25.1180 C   0  0  0  0  0  0  0  0  0  0  0  0
  1  2  1  0
  2  3  1  0
  3  4  1  0
  4  5  2  0
  4  6  1  0
  6  7  1  0
  7  8  2  0
  8  9  1  0
  9 10  2  0
 10 11  1  0
 11 12  1  0
 11 13  2  0
 10 14  1  0
 14 15  1  0
 14 16  2  0
 16  7  1  0
M  END
>  <distance_score>  (567) 
0.604584

>  <ref_pdb>  (567) 
A1776a

>  <ref_mols>  (567) 
A1776a

>  <alias>  (567) 
None

>  <original SMILES>  (567) 
COCC(=O)Nc1ccc(C(C)=O)c(Cl)c1

>  <inchikey>  (567) 
BIOPRKYIIXEEOV-UHFFFAOYSA-N

>  <exports>  (567) 
['/opt/xchem-fragalysis-2/maxwin/2A_HIPPO/hippo/A71EV2A_10_recipes/Recipe_1LPVPY0_poses.sdf']

>  <original ID>  (567) 
BIOPRKYIIXEEOV-UHFFFAOYSA-N

>  <energy_score>  (567) 
-1.318094

>  <tags>  (567) 
[]

>  <HIPPO ID>  (567) 
174624

>  <name>  (567) 
BIOPRKYIIXEEOV-UHFFFAOYSA-N

$$$$
SBSRBSLTRNRFGV-UHFFFAOYSA-N
     RDKit          3D

 16 16  0  0  0  0  0  0  0  0999 V2000
    4.5156    8.8693   26.1495 N   0  0  0  0  0  0  0  0  0  0  0  0
    5.0887    9.4485   26.9765 C   0  0  0  0  0  0  0  0  0  0  0  0
    5.8220   10.2039   27.9857 C   0  0  0  0  0  0  0  0  0  0  0  0
    6.0002   11.6418   27.5593 C   0  0  0  0  0  0  0  0  0  0  0  0
    5.3086   12.5365   28.0408 O   0  0  0  0  0  0  0  0  0  0  0  0
    6.9964   11.9323   26.6413 N   0  0  0  0  0  0  0  0  0  0  0  0
    7.1693   10.9621   25.6478 N   0  0  0  0  0  0  0  0  0  0  0  0
    8.4145   10.9069   24.9892 C   0  0  0  0  0  0  0  0  0  0  0  0
    8.7060    9.7015   24.3389 C   0  0  0  0  0  0  0  0  0  0  0  0
    9.7979    9.5678   23.4908 C   0  0  0  0  0  0  0  0  0  0  0  0
   10.6126   10.6680   23.2532 C   0  0  0  0  0  0  0  0  0  0  0  0
   11.6854   10.5259   22.2440 C   0  0  0  0  0  0  0  0  0  0  0  0
   12.3409   11.6665   21.8515 N   0  0  0  0  0  0  0  0  0  0  0  0
   11.9361    9.4513   21.7142 O   0  0  0  0  0  0  0  0  0  0  0  0
   10.3671   11.8673   23.9310 C   0  0  0  0  0  0  0  0  0  0  0  0
    9.2696   11.9886   24.7952 C   0  0  0  0  0  0  0  0  0  0  0  0
  1  2  3  0
  2  3  1  0
  3  4  1  0
  4  5  2  0
  4  6  1  0
  6  7  1  0
  7  8  1  0
  8  9  2  0
  9 10  1  0
 10 11  2  0
 11 12  1  0
 12 13  1  0
 12 14  2  0
 11 15  1  0
 15 16  2  0
 16  8  1  0
M  END
>  <distance_score>  (568) 
0.639243

>  <ref_pdb>  (568) 
A1776a

>  <ref_mols>  (568) 
A1776a

>  <alias>  (568) 
None

>  <original SMILES>  (568) 
N#CCC(=O)NNc1ccc(C(N)=O)cc1

>  <inchikey>  (568) 
SBSRBSLTRNRFGV-UHFFFAOYSA-N

>  <exports>  (568) 
['/opt/xchem-fragalysis-2/maxwin/2A_HIPPO/hippo/A71EV2A_10_recipes/Recipe_1LPVPY0_poses.sdf']

>  <original ID>  (568) 
SBSRBSLTRNRFGV-UHFFFAOYSA-N

>  <energy_score>  (568) 
-107.360923

>  <tags>  (568) 
[]

>  <HIPPO ID>  (568) 
174809

>  <name>  (568) 
SBSRBSLTRNRFGV-UHFFFAOYSA-N

$$$$
WBOCLWGLVGLIAV-UHFFFAOYSA-N
     RDKit          3D

 16 16  0  0  0  0  0  0  0  0999 V2000
    3.8501   13.0425   26.1369 N   0  0  0  0  0  0  0  0  0  0  0  0
    4.7608   12.6830   26.7614 C   0  0  0  0  0  0  0  0  0  0  0  0
    5.8362   12.2482   27.6510 C   0  0  0  0  0  0  0  0  0  0  0  0
    7.1726   12.1814   26.9392 C   0  0  0  0  0  0  0  0  0  0  0  0
    8.0223   13.0404   27.1948 O   0  0  0  0  0  0  0  0  0  0  0  0
    7.3644   11.0704   26.0918 N   0  0  0  0  0  0  0  0  0  0  0  0
    6.3563   10.0824   26.1030 N   0  0  0  0  0  0  0  0  0  0  0  0
    8.4601   10.9316   25.1702 C   0  0  0  0  0  0  0  0  0  0  0  0
    9.3179   11.9937   24.8638 C   0  0  0  0  0  0  0  0  0  0  0  0
   10.3514   11.8527   23.9280 C   0  0  0  0  0  0  0  0  0  0  0  0
   10.5684   10.6333   23.2899 C   0  0  0  0  0  0  0  0  0  0  0  0
   11.5854   10.4620   22.2272 C   0  0  0  0  0  0  0  0  0  0  0  0
   12.4059   11.5249   21.9595 N   0  0  0  0  0  0  0  0  0  0  0  0
   11.6857    9.4199   21.5940 O   0  0  0  0  0  0  0  0  0  0  0  0
    9.7363    9.5604   23.5872 C   0  0  0  0  0  0  0  0  0  0  0  0
    8.6898    9.7201   24.4999 C   0  0  0  0  0  0  0  0  0  0  0  0
  1  2  3  0
  2  3  1  0
  3  4  1  0
  4  5  2  0
  4  6  1  0
  6  7  1  0
  6  8  1  0
  8  9  2  0
  9 10  1  0
 10 11  2  0
 11 12  1  0
 12 13  1  0
 12 14  2  0
 11 15  1  0
 15 16  2  0
 16  8  1  0
M  END
>  <distance_score>  (569) 
0.549148

>  <ref_pdb>  (569) 
A1776a

>  <ref_mols>  (569) 
A1776a

>  <alias>  (569) 
None

>  <original SMILES>  (569) 
N#CCC(=O)N(N)c1ccc(C(N)=O)cc1

>  <inchikey>  (569) 
WBOCLWGLVGLIAV-UHFFFAOYSA-N

>  <exports>  (569) 
['/opt/xchem-fragalysis-2/maxwin/2A_HIPPO/hippo/A71EV2A_10_recipes/Recipe_1LPVPY0_poses.sdf']

>  <original ID>  (569) 
WBOCLWGLVGLIAV-UHFFFAOYSA-N

>  <energy_score>  (569) 
-33.223292

>  <tags>  (569) 
[]

>  <HIPPO ID>  (569) 
174810

>  <name>  (569) 
WBOCLWGLVGLIAV-UHFFFAOYSA-N

$$$$
UTJKOIXTXLDVII-UHFFFAOYSA-N
     RDKit          3D

 16 16  0  0  0  0  0  0  0  0999 V2000
   12.2871   11.8640   21.9079 C   0  0  0  0  0  0  0  0  0  0  0  0
   11.6447   10.5261   22.2713 C   0  0  0  0  0  0  0  0  0  0  0  0
   11.8865    9.4939   21.6481 O   0  0  0  0  0  0  0  0  0  0  0  0
   10.5869   10.4886   23.3140 C   0  0  0  0  0  0  0  0  0  0  0  0
    9.5922    9.5300   23.2641 C   0  0  0  0  0  0  0  0  0  0  0  0
    8.5083    9.6276   24.1439 C   0  0  0  0  0  0  0  0  0  0  0  0
    8.3662   10.6805   25.0456 C   0  0  0  0  0  0  0  0  0  0  0  0
    7.1948   10.7600   25.8121 N   0  0  0  0  0  0  0  0  0  0  0  0
    6.8868   11.7103   26.7750 C   0  0  0  0  0  0  0  0  0  0  0  0
    7.6384   12.5819   27.2074 O   0  0  0  0  0  0  0  0  0  0  0  0
    5.4972   11.5467   27.3362 C   0  0  0  0  0  0  0  0  0  0  0  0
    4.6512   12.6779   26.9747 C   0  0  0  0  0  0  0  0  0  0  0  0
    3.9013   13.5284   26.7291 N   0  0  0  0  0  0  0  0  0  0  0  0
    9.4005   11.5709   25.1528 C   0  0  0  0  0  0  0  0  0  0  0  0
   10.5187   11.4037   24.3473 C   0  0  0  0  0  0  0  0  0  0  0  0
   11.9087   12.1314   24.9267 Cl  0  0  0  0  0  0  0  0  0  0  0  0
  1  2  1  0
  2  3  2  0
  2  4  1  0
  4  5  2  0
  5  6  1  0
  6  7  2  0
  7  8  1  0
  8  9  1  0
  9 10  2  0
  9 11  1  0
 11 12  1  0
 12 13  3  0
  7 14  1  0
 14 15  2  0
 15 16  1  0
 15  4  1  0
M  END
>  <distance_score>  (570) 
0.792702

>  <ref_pdb>  (570) 
A1776a

>  <ref_mols>  (570) 
A1776a

>  <alias>  (570) 
None

>  <original SMILES>  (570) 
CC(=O)c1ccc(NC(=O)CC#N)cc1Cl

>  <inchikey>  (570) 
UTJKOIXTXLDVII-UHFFFAOYSA-N

>  <exports>  (570) 
['/opt/xchem-fragalysis-2/maxwin/2A_HIPPO/hippo/A71EV2A_10_recipes/Recipe_1LPVPY0_poses.sdf']

>  <original ID>  (570) 
UTJKOIXTXLDVII-UHFFFAOYSA-N

>  <energy_score>  (570) 
-9.859591

>  <tags>  (570) 
[]

>  <HIPPO ID>  (570) 
175062

>  <name>  (570) 
UTJKOIXTXLDVII-UHFFFAOYSA-N

$$$$
WWXPAHQQJPZLRR-MRVPVSSYSA-N
     RDKit          3D

 16 16  0  0  0  0  0  0  0  0999 V2000
   12.4798   12.0547   21.8923 C   0  0  0  0  0  0  0  0  0  0  0  0
   11.7378   10.7670   22.1990 C   0  0  0  0  0  0  0  0  0  0  0  0
   11.9554    9.7182   21.5938 O   0  0  0  0  0  0  0  0  0  0  0  0
   10.6785   10.7966   23.2340 C   0  0  0  0  0  0  0  0  0  0  0  0
    9.9184    9.6522   23.4629 C   0  0  0  0  0  0  0  0  0  0  0  0
    8.8506    9.7021   24.3563 C   0  0  0  0  0  0  0  0  0  0  0  0
    8.5489   10.8766   25.0503 C   0  0  0  0  0  0  0  0  0  0  0  0
    7.4219   10.8598   25.8873 N   0  0  0  0  0  0  0  0  0  0  0  0
    7.0065   11.8692   26.7406 C   0  0  0  0  0  0  0  0  0  0  0  0
    7.6584   12.8645   27.0507 O   0  0  0  0  0  0  0  0  0  0  0  0
    5.6306   11.6113   27.3304 C   0  0  2  0  0  0  0  0  0  0  0  0
    4.6990   12.7693   27.0063 C   0  0  0  0  0  0  0  0  0  0  0  0
    5.7742   11.4592   28.7827 C   0  0  0  0  0  0  0  0  0  0  0  0
    5.8790   11.3384   29.9322 N   0  0  0  0  0  0  0  0  0  0  0  0
    9.3338   12.0043   24.8453 C   0  0  0  0  0  0  0  0  0  0  0  0
   10.3863   11.9647   23.9343 C   0  0  0  0  0  0  0  0  0  0  0  0
  1  2  1  0
  2  3  2  0
  2  4  1  0
  4  5  2  0
  5  6  1  0
  6  7  2  0
  7  8  1  0
  8  9  1  0
  9 10  2  0
  9 11  1  0
 11 12  1  1
 11 13  1  0
 13 14  3  0
  7 15  1  0
 15 16  2  0
 16  4  1  0
M  END
>  <distance_score>  (571) 
0.510159

>  <ref_pdb>  (571) 
A1776a

>  <ref_mols>  (571) 
A1776a

>  <alias>  (571) 
None

>  <original SMILES>  (571) 
CC(=O)c1ccc(NC(=O)[C@H](C)C#N)cc1

>  <inchikey>  (571) 
WWXPAHQQJPZLRR-MRVPVSSYSA-N

>  <exports>  (571) 
['/opt/xchem-fragalysis-2/maxwin/2A_HIPPO/hippo/A71EV2A_10_recipes/Recipe_1LPVPY0_poses.sdf']

>  <original ID>  (571) 
WWXPAHQQJPZLRR-MRVPVSSYSA-N

>  <energy_score>  (571) 
-10.743676

>  <tags>  (571) 
[]

>  <HIPPO ID>  (571) 
175310

>  <name>  (571) 
WWXPAHQQJPZLRR-MRVPVSSYSA-N

$$$$
WWXPAHQQJPZLRR-MRVPVSSYSA-N
     RDKit          3D

 16 16  0  0  0  0  0  0  0  0999 V2000
   12.4587   12.0434   21.9036 C   0  0  0  0  0  0  0  0  0  0  0  0
   11.7123   10.7609   22.2256 C   0  0  0  0  0  0  0  0  0  0  0  0
   11.9209    9.7058   21.6283 O   0  0  0  0  0  0  0  0  0  0  0  0
   10.6572   10.8070   23.2658 C   0  0  0  0  0  0  0  0  0  0  0  0
    9.8533    9.6894   23.4765 C   0  0  0  0  0  0  0  0  0  0  0  0
    8.7809    9.7708   24.3638 C   0  0  0  0  0  0  0  0  0  0  0  0
    8.5201   10.9482   25.0716 C   0  0  0  0  0  0  0  0  0  0  0  0
    7.3756   10.9745   25.8854 N   0  0  0  0  0  0  0  0  0  0  0  0
    7.0178   11.9559   26.7912 C   0  0  0  0  0  0  0  0  0  0  0  0
    7.7569   12.8671   27.1699 O   0  0  0  0  0  0  0  0  0  0  0  0
    5.6163   11.8446   27.3774 C   0  0  2  0  0  0  0  0  0  0  0  0
    4.9528   10.4832   27.2775 C   0  0  0  0  0  0  0  0  0  0  0  0
    4.7295   12.8585   26.8072 C   0  0  0  0  0  0  0  0  0  0  0  0
    3.9266   13.6064   26.4309 N   0  0  0  0  0  0  0  0  0  0  0  0
    9.3540   12.0430   24.8932 C   0  0  0  0  0  0  0  0  0  0  0  0
   10.4088   11.9728   23.9866 C   0  0  0  0  0  0  0  0  0  0  0  0
  1  2  1  0
  2  3  2  0
  2  4  1  0
  4  5  2  0
  5  6  1  0
  6  7  2  0
  7  8  1  0
  8  9  1  0
  9 10  2  0
  9 11  1  0
 11 12  1  6
 11 13  1  0
 13 14  3  0
  7 15  1  0
 15 16  2  0
 16  4  1  0
M  END
>  <distance_score>  (572) 
0.551115

>  <ref_pdb>  (572) 
A1776a

>  <ref_mols>  (572) 
A1776a

>  <alias>  (572) 
None

>  <original SMILES>  (572) 
CC(=O)c1ccc(NC(=O)[C@H](C)C#N)cc1

>  <inchikey>  (572) 
WWXPAHQQJPZLRR-MRVPVSSYSA-N

>  <exports>  (572) 
['/opt/xchem-fragalysis-2/maxwin/2A_HIPPO/hippo/A71EV2A_10_recipes/Recipe_1LPVPY0_poses.sdf']

>  <original ID>  (572) 
WWXPAHQQJPZLRR-MRVPVSSYSA-N

>  <energy_score>  (572) 
-14.612773

>  <tags>  (572) 
[]

>  <HIPPO ID>  (572) 
175311

>  <name>  (572) 
WWXPAHQQJPZLRR-MRVPVSSYSA-N

$$$$
UFGVHQYSLOSSJS-UHFFFAOYSA-N
     RDKit          3D

 17 18  0  0  0  0  0  0  0  0999 V2000
   12.2552   11.8168   21.9179 C   0  0  0  0  0  0  0  0  0  0  0  0
   11.5970   10.4914   22.3030 C   0  0  0  0  0  0  0  0  0  0  0  0
   11.8204    9.4503   21.6884 O   0  0  0  0  0  0  0  0  0  0  0  0
   10.5442   10.4856   23.3537 C   0  0  0  0  0  0  0  0  0  0  0  0
    9.5234    9.5511   23.3325 C   0  0  0  0  0  0  0  0  0  0  0  0
    8.4506    9.6880   24.2262 C   0  0  0  0  0  0  0  0  0  0  0  0
    8.3481   10.7591   25.1133 C   0  0  0  0  0  0  0  0  0  0  0  0
    7.2013   10.8752   25.9154 N   0  0  0  0  0  0  0  0  0  0  0  0
    6.9518   11.8279   26.8935 C   0  0  0  0  0  0  0  0  0  0  0  0
    7.7645   12.6904   27.2528 O   0  0  0  0  0  0  0  0  0  0  0  0
    5.5995   11.7365   27.5988 C   0  0  0  0  0  0  0  0  0  0  0  0
    4.4533   12.6073   27.0590 C   0  0  0  0  0  0  0  0  0  0  0  0
    3.5023   11.5460   27.4594 N   0  0  0  0  0  0  0  0  0  0  0  0
    4.6166   10.5710   27.4168 C   0  0  0  0  0  0  0  0  0  0  0  0
    9.4048   11.6276   25.1827 C   0  0  0  0  0  0  0  0  0  0  0  0
   10.5092   11.4198   24.3699 C   0  0  0  0  0  0  0  0  0  0  0  0
   11.9206   12.1278   24.9236 Cl  0  0  0  0  0  0  0  0  0  0  0  0
  1  2  1  0
  2  3  2  0
  2  4  1  0
  4  5  2  0
  5  6  1  0
  6  7  2  0
  7  8  1  0
  8  9  1  0
  9 10  2  0
  9 11  1  0
 11 12  1  0
 12 13  1  0
 13 14  1  0
  7 15  1  0
 15 16  2  0
 16 17  1  0
 16  4  1  0
 14 11  1  0
M  END
>  <distance_score>  (573) 
0.953357

>  <ref_pdb>  (573) 
A1776a

>  <ref_mols>  (573) 
A1776a

>  <alias>  (573) 
None

>  <original SMILES>  (573) 
CC(=O)c1ccc(NC(=O)C2CNC2)cc1Cl

>  <inchikey>  (573) 
UFGVHQYSLOSSJS-UHFFFAOYSA-N

>  <exports>  (573) 
['/opt/xchem-fragalysis-2/maxwin/2A_HIPPO/hippo/A71EV2A_10_recipes/Recipe_1LPVPY0_poses.sdf']

>  <original ID>  (573) 
UFGVHQYSLOSSJS-UHFFFAOYSA-N

>  <energy_score>  (573) 
-9.635152

>  <tags>  (573) 
[]

>  <HIPPO ID>  (573) 
175949

>  <name>  (573) 
UFGVHQYSLOSSJS-UHFFFAOYSA-N

$$$$
ZSONKSMETZLGCR-UHFFFAOYSA-N
     RDKit          3D

 17 18  0  0  0  0  0  0  0  0999 V2000
   12.4627   11.5589   21.9238 N   0  0  0  0  0  0  0  0  0  0  0  0
   11.6635   10.4779   22.1882 C   0  0  0  0  0  0  0  0  0  0  0  0
   11.7821    9.4424   21.5475 O   0  0  0  0  0  0  0  0  0  0  0  0
   10.6454   10.6229   23.2528 C   0  0  0  0  0  0  0  0  0  0  0  0
   10.3798   11.8476   23.8713 C   0  0  0  0  0  0  0  0  0  0  0  0
    9.2955   11.9782   24.7453 C   0  0  0  0  0  0  0  0  0  0  0  0
    8.4515   10.8942   24.9959 C   0  0  0  0  0  0  0  0  0  0  0  0
    7.2251   11.0182   25.6678 N   0  0  0  0  0  0  0  0  0  0  0  0
    7.1899   11.8752   26.7717 N   0  0  0  0  0  0  0  0  0  0  0  0
    6.1483   11.6031   27.6586 C   0  0  0  0  0  0  0  0  0  0  0  0
    5.3937   10.6367   27.4882 O   0  0  0  0  0  0  0  0  0  0  0  0
    6.0444   12.5208   28.8818 C   0  0  0  0  0  0  0  0  0  0  0  0
    6.9525   13.7413   29.0643 C   0  0  0  0  0  0  0  0  0  0  0  0
    5.7971   14.5225   29.5507 N   0  0  0  0  0  0  0  0  0  0  0  0
    4.8921   13.5249   28.9216 C   0  0  0  0  0  0  0  0  0  0  0  0
    8.7516    9.6713   24.3884 C   0  0  0  0  0  0  0  0  0  0  0  0
    9.8449    9.5221   23.5405 C   0  0  0  0  0  0  0  0  0  0  0  0
  1  2  1  0
  2  3  2  0
  2  4  1  0
  4  5  2  0
  5  6  1  0
  6  7  2  0
  7  8  1  0
  8  9  1  0
  9 10  1  0
 10 11  2  0
 10 12  1  0
 12 13  1  0
 13 14  1  0
 14 15  1  0
  7 16  1  0
 16 17  2  0
 17  4  1  0
 15 12  1  0
M  END
>  <distance_score>  (574) 
0.774588

>  <ref_pdb>  (574) 
A1776a

>  <ref_mols>  (574) 
A1776a

>  <alias>  (574) 
None

>  <original SMILES>  (574) 
NC(=O)c1ccc(NNC(=O)C2CNC2)cc1

>  <inchikey>  (574) 
ZSONKSMETZLGCR-UHFFFAOYSA-N

>  <exports>  (574) 
['/opt/xchem-fragalysis-2/maxwin/2A_HIPPO/hippo/A71EV2A_10_recipes/Recipe_1LPVPY0_poses.sdf']

>  <original ID>  (574) 
ZSONKSMETZLGCR-UHFFFAOYSA-N

>  <energy_score>  (574) 
-47.472296

>  <tags>  (574) 
[]

>  <HIPPO ID>  (574) 
176045

>  <name>  (574) 
ZSONKSMETZLGCR-UHFFFAOYSA-N

$$$$
DPOMDYYCOPDDML-UHFFFAOYSA-N
     RDKit          3D

 17 18  0  0  0  0  0  0  0  0999 V2000
   12.3428   11.5811   21.8259 N   0  0  0  0  0  0  0  0  0  0  0  0
   11.6642   10.4571   22.2248 C   0  0  0  0  0  0  0  0  0  0  0  0
   11.8851    9.3749   21.6984 O   0  0  0  0  0  0  0  0  0  0  0  0
   10.6086   10.6250   23.2469 C   0  0  0  0  0  0  0  0  0  0  0  0
    9.7417    9.5671   23.4866 C   0  0  0  0  0  0  0  0  0  0  0  0
    8.7065    9.7138   24.4126 C   0  0  0  0  0  0  0  0  0  0  0  0
    8.5155   10.8960   25.1483 C   0  0  0  0  0  0  0  0  0  0  0  0
    7.4254   11.0044   26.0855 N   0  0  0  0  0  0  0  0  0  0  0  0
    6.4317   10.0172   26.0489 N   0  0  0  0  0  0  0  0  0  0  0  0
    7.2580   12.0629   27.0163 C   0  0  0  0  0  0  0  0  0  0  0  0
    8.1472   12.9034   27.2456 O   0  0  0  0  0  0  0  0  0  0  0  0
    5.9639   12.1695   27.8375 C   0  0  0  0  0  0  0  0  0  0  0  0
    5.5257   11.0476   28.7921 C   0  0  0  0  0  0  0  0  0  0  0  0
    4.1108   11.3833   28.4926 N   0  0  0  0  0  0  0  0  0  0  0  0
    4.5620   12.0317   27.2363 C   0  0  0  0  0  0  0  0  0  0  0  0
    9.4143   11.9391   24.9013 C   0  0  0  0  0  0  0  0  0  0  0  0
   10.4499   11.8069   23.9652 C   0  0  0  0  0  0  0  0  0  0  0  0
  1  2  1  0
  2  3  2  0
  2  4  1  0
  4  5  2  0
  5  6  1  0
  6  7  2  0
  7  8  1  0
  8  9  1  0
  8 10  1  0
 10 11  2  0
 10 12  1  0
 12 13  1  0
 13 14  1  0
 14 15  1  0
  7 16  1  0
 16 17  2  0
 17  4  1  0
 15 12  1  0
M  END
>  <distance_score>  (575) 
0.83614

>  <ref_pdb>  (575) 
A1776a

>  <ref_mols>  (575) 
A1776a

>  <alias>  (575) 
None

>  <original SMILES>  (575) 
NC(=O)c1ccc(N(N)C(=O)C2CNC2)cc1

>  <inchikey>  (575) 
DPOMDYYCOPDDML-UHFFFAOYSA-N

>  <exports>  (575) 
['/opt/xchem-fragalysis-2/maxwin/2A_HIPPO/hippo/A71EV2A_10_recipes/Recipe_1LPVPY0_poses.sdf']

>  <original ID>  (575) 
DPOMDYYCOPDDML-UHFFFAOYSA-N

>  <energy_score>  (575) 
-33.300161

>  <tags>  (575) 
[]

>  <HIPPO ID>  (575) 
176046

>  <name>  (575) 
DPOMDYYCOPDDML-UHFFFAOYSA-N

$$$$
DNUFQHUYWPKDIT-JTQLQIEISA-N
     RDKit          3D

 17 17  0  0  0  0  0  0  0  0999 V2000
   12.3513   11.9061   21.8626 C   0  0  0  0  0  0  0  0  0  0  0  0
   11.7308   10.5512   22.1965 C   0  0  0  0  0  0  0  0  0  0  0  0
   11.9933    9.5362   21.5535 O   0  0  0  0  0  0  0  0  0  0  0  0
   10.6743   10.4667   23.2343 C   0  0  0  0  0  0  0  0  0  0  0  0
    9.7148    9.4755   23.1595 C   0  0  0  0  0  0  0  0  0  0  0  0
    8.6317    9.5136   24.0396 C   0  0  0  0  0  0  0  0  0  0  0  0
    8.4531   10.5389   24.9629 C   0  0  0  0  0  0  0  0  0  0  0  0
    7.2789   10.5676   25.7204 N   0  0  0  0  0  0  0  0  0  0  0  0
    6.8733   11.5802   26.5792 C   0  0  0  0  0  0  0  0  0  0  0  0
    7.5650   12.5079   26.9931 O   0  0  0  0  0  0  0  0  0  0  0  0
    5.4098   11.4009   26.9978 C   0  0  1  0  0  0  0  0  0  0  0  0
    5.3605   10.6948   28.2931 N   0  0  0  0  0  0  0  0  0  0  0  0
    4.7598   12.7816   26.9947 C   0  0  0  0  0  0  0  0  0  0  0  0
    2.9937   12.6732   27.2278 Cl  0  0  0  0  0  0  0  0  0  0  0  0
    9.4497   11.4669   25.0900 C   0  0  0  0  0  0  0  0  0  0  0  0
   10.5716   11.3586   24.2843 C   0  0  0  0  0  0  0  0  0  0  0  0
   11.9226   12.1368   24.8820 Cl  0  0  0  0  0  0  0  0  0  0  0  0
  1  2  1  0
  2  3  2  0
  2  4  1  0
  4  5  2  0
  5  6  1  0
  6  7  2  0
  7  8  1  0
  8  9  1  0
  9 10  2  0
  9 11  1  0
 11 12  1  1
 11 13  1  0
 13 14  1  0
  7 15  1  0
 15 16  2  0
 16 17  1  0
 16  4  1  0
M  END
>  <distance_score>  (576) 
0.954512

>  <ref_pdb>  (576) 
A1776a

>  <ref_mols>  (576) 
A1776a

>  <alias>  (576) 
None

>  <original SMILES>  (576) 
CC(=O)c1ccc(NC(=O)[C@@H](N)CCl)cc1Cl

>  <inchikey>  (576) 
DNUFQHUYWPKDIT-JTQLQIEISA-N

>  <exports>  (576) 
['/opt/xchem-fragalysis-2/maxwin/2A_HIPPO/hippo/A71EV2A_10_recipes/Recipe_1LPVPY0_poses.sdf']

>  <original ID>  (576) 
DNUFQHUYWPKDIT-JTQLQIEISA-N

>  <energy_score>  (576) 
-24.341296

>  <tags>  (576) 
[]

>  <HIPPO ID>  (576) 
176391

>  <name>  (576) 
DNUFQHUYWPKDIT-JTQLQIEISA-N

$$$$
DNUFQHUYWPKDIT-JTQLQIEISA-N
     RDKit          3D

 17 17  0  0  0  0  0  0  0  0999 V2000
   12.4917   12.1721   21.9402 C   0  0  0  0  0  0  0  0  0  0  0  0
   11.7347   10.8920   22.2132 C   0  0  0  0  0  0  0  0  0  0  0  0
   11.9877    9.8757   21.5696 O   0  0  0  0  0  0  0  0  0  0  0  0
   10.6561   10.9164   23.2437 C   0  0  0  0  0  0  0  0  0  0  0  0
   10.2441   12.1357   23.7926 C   0  0  0  0  0  0  0  0  0  0  0  0
    9.2015   12.1977   24.7209 C   0  0  0  0  0  0  0  0  0  0  0  0
    8.5279   11.0410   25.0851 C   0  0  0  0  0  0  0  0  0  0  0  0
    7.4420   11.0034   25.9605 N   0  0  0  0  0  0  0  0  0  0  0  0
    6.9599   12.0381   26.7350 C   0  0  0  0  0  0  0  0  0  0  0  0
    7.5471   13.0874   26.9801 O   0  0  0  0  0  0  0  0  0  0  0  0
    5.5997   11.6702   27.3494 C   0  0  1  0  0  0  0  0  0  0  0  0
    5.8438   10.9004   28.5911 N   0  0  0  0  0  0  0  0  0  0  0  0
    4.7357   12.9156   27.5277 C   0  0  0  0  0  0  0  0  0  0  0  0
    5.1584   13.8260   29.0135 Cl  0  0  0  0  0  0  0  0  0  0  0  0
    8.9110    9.8332   24.5251 C   0  0  0  0  0  0  0  0  0  0  0  0
    9.9874    9.7627   23.6447 C   0  0  0  0  0  0  0  0  0  0  0  0
   10.4015    8.1896   23.1500 Cl  0  0  0  0  0  0  0  0  0  0  0  0
  1  2  1  0
  2  3  2  0
  2  4  1  0
  4  5  2  0
  5  6  1  0
  6  7  2  0
  7  8  1  0
  8  9  1  0
  9 10  2  0
  9 11  1  0
 11 12  1  1
 11 13  1  0
 13 14  1  0
  7 15  1  0
 15 16  2  0
 16 17  1  0
 16  4  1  0
M  END
>  <distance_score>  (577) 
0.644507

>  <ref_pdb>  (577) 
A1776a

>  <ref_mols>  (577) 
A1776a

>  <alias>  (577) 
None

>  <original SMILES>  (577) 
CC(=O)c1ccc(NC(=O)[C@@H](N)CCl)cc1Cl

>  <inchikey>  (577) 
DNUFQHUYWPKDIT-JTQLQIEISA-N

>  <exports>  (577) 
['/opt/xchem-fragalysis-2/maxwin/2A_HIPPO/hippo/A71EV2A_10_recipes/Recipe_1LPVPY0_poses.sdf']

>  <original ID>  (577) 
DNUFQHUYWPKDIT-JTQLQIEISA-N

>  <energy_score>  (577) 
-23.719016

>  <tags>  (577) 
[]

>  <HIPPO ID>  (577) 
176392

>  <name>  (577) 
DNUFQHUYWPKDIT-JTQLQIEISA-N

$$$$
CYAAORYQKODIHC-MRVPVSSYSA-N
     RDKit          3D

 17 17  0  0  0  0  0  0  0  0999 V2000
   12.4068   11.5968   21.9923 N   0  0  0  0  0  0  0  0  0  0  0  0
   11.5873   10.5309   22.2538 C   0  0  0  0  0  0  0  0  0  0  0  0
   11.7159    9.4766   21.6452 O   0  0  0  0  0  0  0  0  0  0  0  0
   10.5345   10.7216   23.2795 C   0  0  0  0  0  0  0  0  0  0  0  0
    9.7586    9.6205   23.6319 C   0  0  0  0  0  0  0  0  0  0  0  0
    8.6479    9.7995   24.4518 C   0  0  0  0  0  0  0  0  0  0  0  0
    8.3110   11.0564   24.9652 C   0  0  0  0  0  0  0  0  0  0  0  0
    7.0694   11.1726   25.6245 N   0  0  0  0  0  0  0  0  0  0  0  0
    7.0550   12.0834   26.7085 N   0  0  0  0  0  0  0  0  0  0  0  0
    5.8046   12.0947   27.3326 C   0  0  0  0  0  0  0  0  0  0  0  0
    4.7406   12.3435   26.7712 O   0  0  0  0  0  0  0  0  0  0  0  0
    5.8630   11.5271   28.7517 C   0  0  2  0  0  0  0  0  0  0  0  0
    7.1595   11.9000   29.3924 N   0  0  0  0  0  0  0  0  0  0  0  0
    5.6503   10.0118   28.5791 C   0  0  0  0  0  0  0  0  0  0  0  0
    6.1071    9.0899   30.0245 Cl  0  0  0  0  0  0  0  0  0  0  0  0
    9.1095   12.1501   24.6354 C   0  0  0  0  0  0  0  0  0  0  0  0
   10.2146   11.9848   23.7931 C   0  0  0  0  0  0  0  0  0  0  0  0
  1  2  1  0
  2  3  2  0
  2  4  1  0
  4  5  2  0
  5  6  1  0
  6  7  2  0
  7  8  1  0
  8  9  1  0
  9 10  1  0
 10 11  2  0
 10 12  1  0
 12 13  1  6
 12 14  1  0
 14 15  1  0
  7 16  1  0
 16 17  2  0
 17  4  1  0
M  END
>  <distance_score>  (578) 
0.853772

>  <ref_pdb>  (578) 
A1776a

>  <ref_mols>  (578) 
A1776a

>  <alias>  (578) 
None

>  <original SMILES>  (578) 
NC(=O)c1ccc(NNC(=O)[C@H](N)CCl)cc1

>  <inchikey>  (578) 
CYAAORYQKODIHC-MRVPVSSYSA-N

>  <exports>  (578) 
['/opt/xchem-fragalysis-2/maxwin/2A_HIPPO/hippo/A71EV2A_10_recipes/Recipe_1LPVPY0_poses.sdf']

>  <original ID>  (578) 
CYAAORYQKODIHC-MRVPVSSYSA-N

>  <energy_score>  (578) 
-29.802033

>  <tags>  (578) 
[]

>  <HIPPO ID>  (578) 
176435

>  <name>  (578) 
CYAAORYQKODIHC-MRVPVSSYSA-N

$$$$
CYAAORYQKODIHC-QMMMGPOBSA-N
     RDKit          3D

 17 17  0  0  0  0  0  0  0  0999 V2000
   12.3911   11.6321   22.0196 N   0  0  0  0  0  0  0  0  0  0  0  0
   11.6048   10.5360   22.2568 C   0  0  0  0  0  0  0  0  0  0  0  0
   11.7403    9.5112   21.6010 O   0  0  0  0  0  0  0  0  0  0  0  0
   10.5760   10.6547   23.3159 C   0  0  0  0  0  0  0  0  0  0  0  0
   10.2789   11.8686   23.9460 C   0  0  0  0  0  0  0  0  0  0  0  0
    9.1919   11.9715   24.8250 C   0  0  0  0  0  0  0  0  0  0  0  0
    8.3841   10.8624   25.0733 C   0  0  0  0  0  0  0  0  0  0  0  0
    7.1284   10.9034   25.7304 N   0  0  0  0  0  0  0  0  0  0  0  0
    6.9742   11.8921   26.7194 N   0  0  0  0  0  0  0  0  0  0  0  0
    5.8115   11.8398   27.4626 C   0  0  0  0  0  0  0  0  0  0  0  0
    5.2290   12.8911   27.7294 O   0  0  0  0  0  0  0  0  0  0  0  0
    5.2548   10.5009   27.9768 C   0  0  1  0  0  0  0  0  0  0  0  0
    4.8436    9.6075   26.8656 N   0  0  0  0  0  0  0  0  0  0  0  0
    6.2273    9.8211   28.9314 C   0  0  0  0  0  0  0  0  0  0  0  0
    6.6735   10.8338   30.3277 Cl  0  0  0  0  0  0  0  0  0  0  0  0
    8.7085    9.6548   24.4445 C   0  0  0  0  0  0  0  0  0  0  0  0
    9.8000    9.5353   23.5913 C   0  0  0  0  0  0  0  0  0  0  0  0
  1  2  1  0
  2  3  2  0
  2  4  1  0
  4  5  2  0
  5  6  1  0
  6  7  2  0
  7  8  1  0
  8  9  1  0
  9 10  1  0
 10 11  2  0
 10 12  1  0
 12 13  1  6
 12 14  1  0
 14 15  1  0
  7 16  1  0
 16 17  2  0
 17  4  1  0
M  END
>  <distance_score>  (579) 
0.614053

>  <ref_pdb>  (579) 
A1776a

>  <ref_mols>  (579) 
A1776a

>  <alias>  (579) 
None

>  <original SMILES>  (579) 
NC(=O)c1ccc(NNC(=O)[C@@H](N)CCl)cc1

>  <inchikey>  (579) 
CYAAORYQKODIHC-QMMMGPOBSA-N

>  <exports>  (579) 
['/opt/xchem-fragalysis-2/maxwin/2A_HIPPO/hippo/A71EV2A_10_recipes/Recipe_1LPVPY0_poses.sdf']

>  <original ID>  (579) 
CYAAORYQKODIHC-QMMMGPOBSA-N

>  <energy_score>  (579) 
-50.841214

>  <tags>  (579) 
[]

>  <HIPPO ID>  (579) 
176436

>  <name>  (579) 
CYAAORYQKODIHC-QMMMGPOBSA-N

$$$$
HDTCNOYHWVJVMJ-QMMMGPOBSA-N
     RDKit          3D

 17 17  0  0  0  0  0  0  0  0999 V2000
   12.4311   11.5375   21.9385 N   0  0  0  0  0  0  0  0  0  0  0  0
   11.6149   10.4693   22.1979 C   0  0  0  0  0  0  0  0  0  0  0  0
   11.7306    9.4249   21.5711 O   0  0  0  0  0  0  0  0  0  0  0  0
   10.5842   10.6341   23.2470 C   0  0  0  0  0  0  0  0  0  0  0  0
   10.3234   11.8613   23.8527 C   0  0  0  0  0  0  0  0  0  0  0  0
    9.2811   11.9881   24.7800 C   0  0  0  0  0  0  0  0  0  0  0  0
    8.4623   10.9027   25.1137 C   0  0  0  0  0  0  0  0  0  0  0  0
    7.3702   11.0168   26.0451 N   0  0  0  0  0  0  0  0  0  0  0  0
    6.4081    9.9886   26.0801 N   0  0  0  0  0  0  0  0  0  0  0  0
    7.1868   12.1116   26.9074 C   0  0  0  0  0  0  0  0  0  0  0  0
    8.0370   12.9892   27.1163 O   0  0  0  0  0  0  0  0  0  0  0  0
    5.8876   12.1396   27.7680 C   0  0  1  0  0  0  0  0  0  0  0  0
    5.9472   13.3463   28.6590 N   0  0  0  0  0  0  0  0  0  0  0  0
    4.5559   12.1330   27.0216 C   0  0  0  0  0  0  0  0  0  0  0  0
    4.3701   13.4148   25.8191 Cl  0  0  0  0  0  0  0  0  0  0  0  0
    8.7324    9.6856   24.4696 C   0  0  0  0  0  0  0  0  0  0  0  0
    9.7855    9.5413   23.5635 C   0  0  0  0  0  0  0  0  0  0  0  0
  1  2  1  0
  2  3  2  0
  2  4  1  0
  4  5  2  0
  5  6  1  0
  6  7  2  0
  7  8  1  0
  8  9  1  0
  8 10  1  0
 10 11  2  0
 10 12  1  0
 12 13  1  6
 12 14  1  0
 14 15  1  0
  7 16  1  0
 16 17  2  0
 17  4  1  0
M  END
>  <distance_score>  (580) 
0.498621

>  <ref_pdb>  (580) 
A1776a

>  <ref_mols>  (580) 
A1776a

>  <alias>  (580) 
None

>  <original SMILES>  (580) 
NC(=O)c1ccc(N(N)C(=O)[C@@H](N)CCl)cc1

>  <inchikey>  (580) 
HDTCNOYHWVJVMJ-QMMMGPOBSA-N

>  <exports>  (580) 
['/opt/xchem-fragalysis-2/maxwin/2A_HIPPO/hippo/A71EV2A_10_recipes/Recipe_1LPVPY0_poses.sdf']

>  <original ID>  (580) 
HDTCNOYHWVJVMJ-QMMMGPOBSA-N

>  <energy_score>  (580) 
-42.504136

>  <tags>  (580) 
[]

>  <HIPPO ID>  (580) 
176437

>  <name>  (580) 
HDTCNOYHWVJVMJ-QMMMGPOBSA-N

$$$$
HDTCNOYHWVJVMJ-MRVPVSSYSA-N
     RDKit          3D

 17 17  0  0  0  0  0  0  0  0999 V2000
   12.4459   11.7039   21.7585 N   0  0  0  0  0  0  0  0  0  0  0  0
   11.7831   10.5624   22.1363 C   0  0  0  0  0  0  0  0  0  0  0  0
   12.0288    9.4920   21.5953 O   0  0  0  0  0  0  0  0  0  0  0  0
   10.7147   10.6925   23.1482 C   0  0  0  0  0  0  0  0  0  0  0  0
   10.4727   11.8760   23.8475 C   0  0  0  0  0  0  0  0  0  0  0  0
    9.4168   11.9618   24.7676 C   0  0  0  0  0  0  0  0  0  0  0  0
    8.5817   10.8675   24.9970 C   0  0  0  0  0  0  0  0  0  0  0  0
    7.4574   10.8964   25.8873 N   0  0  0  0  0  0  0  0  0  0  0  0
    6.6095    9.7677   25.7893 N   0  0  0  0  0  0  0  0  0  0  0  0
    7.2103   11.8884   26.8641 C   0  0  0  0  0  0  0  0  0  0  0  0
    7.9412   12.8584   27.0954 O   0  0  0  0  0  0  0  0  0  0  0  0
    5.9488   11.7129   27.7555 C   0  0  2  0  0  0  0  0  0  0  0  0
    5.9505   10.3790   28.4172 N   0  0  0  0  0  0  0  0  0  0  0  0
    4.6693   11.9942   26.9753 C   0  0  0  0  0  0  0  0  0  0  0  0
    3.1994   11.6363   27.9343 Cl  0  0  0  0  0  0  0  0  0  0  0  0
    8.8665    9.6823   24.2921 C   0  0  0  0  0  0  0  0  0  0  0  0
    9.9193    9.5831   23.3901 C   0  0  0  0  0  0  0  0  0  0  0  0
  1  2  1  0
  2  3  2  0
  2  4  1  0
  4  5  2  0
  5  6  1  0
  6  7  2  0
  7  8  1  0
  8  9  1  0
  8 10  1  0
 10 11  2  0
 10 12  1  0
 12 13  1  6
 12 14  1  0
 14 15  1  0
  7 16  1  0
 16 17  2  0
 17  4  1  0
M  END
>  <distance_score>  (581) 
0.501036

>  <ref_pdb>  (581) 
A1776a

>  <ref_mols>  (581) 
A1776a

>  <alias>  (581) 
None

>  <original SMILES>  (581) 
NC(=O)c1ccc(N(N)C(=O)[C@H](N)CCl)cc1

>  <inchikey>  (581) 
HDTCNOYHWVJVMJ-MRVPVSSYSA-N

>  <exports>  (581) 
['/opt/xchem-fragalysis-2/maxwin/2A_HIPPO/hippo/A71EV2A_10_recipes/Recipe_1LPVPY0_poses.sdf']

>  <original ID>  (581) 
HDTCNOYHWVJVMJ-MRVPVSSYSA-N

>  <energy_score>  (581) 
-57.982833

>  <tags>  (581) 
[]

>  <HIPPO ID>  (581) 
176438

>  <name>  (581) 
HDTCNOYHWVJVMJ-MRVPVSSYSA-N

$$$$
XGEHJBAORVMZNC-UHFFFAOYSA-N
     RDKit          3D

 21 23  0  0  0  0  0  0  0  0999 V2000
   15.5345   12.9462   23.1210 C   0  0  0  0  0  0  0  0  0  0  0  0
   15.1076   12.5563   21.6172 C   0  0  0  0  0  0  0  0  0  0  0  0
   15.8097   12.6750   20.6188 O   0  0  0  0  0  0  0  0  0  0  0  0
   13.8134   12.1496   21.4551 N   0  0  0  0  0  0  0  0  0  0  0  0
   12.7366   12.9595   21.8220 C   0  0  0  0  0  0  0  0  0  0  0  0
   11.7531   12.2742   22.6704 C   0  0  0  0  0  0  0  0  0  0  0  0
   11.3666   10.9162   22.2154 C   0  0  0  0  0  0  0  0  0  0  0  0
   10.9886   10.0593   23.3872 C   0  0  0  0  0  0  0  0  0  0  0  0
   11.3701    8.9016   23.5059 O   0  0  0  0  0  0  0  0  0  0  0  0
    9.9041   10.5939   24.2500 C   0  0  0  0  0  0  0  0  0  0  0  0
    8.8342    9.7293   24.4522 C   0  0  0  0  0  0  0  0  0  0  0  0
    7.7149   10.1768   25.1416 C   0  0  0  0  0  0  0  0  0  0  0  0
    7.6280   11.4971   25.4674 C   0  0  0  0  0  0  0  0  0  0  0  0
    8.6622   12.3752   25.2601 C   0  0  0  0  0  0  0  0  0  0  0  0
    9.8427   11.9117   24.7429 C   0  0  0  0  0  0  0  0  0  0  0  0
    8.2621   13.7395   25.7166 C   0  0  0  0  0  0  0  0  0  0  0  0
    6.8729   13.4578   26.3195 C   0  0  0  0  0  0  0  0  0  0  0  0
    6.1273   14.2178   26.9106 O   0  0  0  0  0  0  0  0  0  0  0  0
    6.5798   12.1268   26.0898 N   0  0  0  0  0  0  0  0  0  0  0  0
   12.3982   10.2546   21.3314 C   0  0  0  0  0  0  0  0  0  0  0  0
   13.4295   11.1201   20.5879 C   0  0  0  0  0  0  0  0  0  0  0  0
  1  2  1  0
  2  3  2  0
  2  4  1  0
  4  5  1  0
  5  6  1  0
  6  7  1  0
  7  8  1  0
  8  9  2  0
  8 10  1  0
 10 11  2  0
 11 12  1  0
 12 13  2  0
 13 14  1  0
 14 15  2  0
 14 16  1  0
 16 17  1  0
 17 18  2  0
 17 19  1  0
  7 20  1  0
 20 21  1  0
 21  4  1  0
 15 10  1  0
 19 13  1  0
M  END
>  <distance_score>  (582) 
1.628018

>  <ref_pdb>  (582) 
A1778a

>  <ref_mols>  (582) 
A1778a

>  <alias>  (582) 
None

>  <original SMILES>  (582) 
CC(=O)N1CCC(C(=O)c2ccc3c(c2)CC(=O)N3)CC1

>  <inchikey>  (582) 
XGEHJBAORVMZNC-UHFFFAOYSA-N

>  <exports>  (582) 
['/opt/xchem-fragalysis-2/maxwin/2A_HIPPO/hippo/A71EV2A_10_recipes/Recipe_1LPUPHX_poses.sdf', '/opt/xchem-fragalysis-2/maxwin/2A_HIPPO/hippo/A71EV2A_10_recipes/Recipe_1LPVPY0_poses.sdf']

>  <original ID>  (582) 
XGEHJBAORVMZNC-UHFFFAOYSA-N

>  <energy_score>  (582) 
19.768036

>  <tags>  (582) 
[]

>  <HIPPO ID>  (582) 
177866

>  <name>  (582) 
XGEHJBAORVMZNC-UHFFFAOYSA-N

$$$$
DSWPNAIUGQHHCN-UHFFFAOYSA-N
     RDKit          3D

 22 24  0  0  0  0  0  0  0  0999 V2000
    6.1194   14.1462   26.8032 O   0  0  0  0  0  0  0  0  0  0  0  0
    6.8251   13.4183   26.1285 C   0  0  0  0  0  0  0  0  0  0  0  0
    7.8761   13.8103   25.0766 C   0  0  0  0  0  0  0  0  0  0  0  0
    8.3520   12.4711   24.6216 C   0  0  0  0  0  0  0  0  0  0  0  0
    9.2043   12.1242   23.6054 C   0  0  0  0  0  0  0  0  0  0  0  0
    9.5507   10.7706   23.4301 C   0  0  0  0  0  0  0  0  0  0  0  0
   10.5225   10.2424   22.4400 C   0  0  0  0  0  0  0  0  0  0  0  0
   10.2739    9.1845   21.8706 O   0  0  0  0  0  0  0  0  0  0  0  0
   11.8932   10.8077   22.3830 C   0  0  0  0  0  0  0  0  0  0  0  0
   12.6903   10.4581   21.0987 C   0  0  0  0  0  0  0  0  0  0  0  0
   13.4083   11.5567   20.3052 C   0  0  0  0  0  0  0  0  0  0  0  0
   12.8290   12.7840   20.6857 N   0  0  0  0  0  0  0  0  0  0  0  0
   12.3996   13.6954   19.7138 C   0  0  0  0  0  0  0  0  0  0  0  0
   12.5503   13.4204   18.5225 O   0  0  0  0  0  0  0  0  0  0  0  0
   11.9260   15.1108   20.0364 C   0  0  0  0  0  0  0  0  0  0  0  0
   11.9266   15.9306   18.8590 O   0  0  0  0  0  0  0  0  0  0  0  0
   13.0865   12.9304   22.0866 C   0  0  0  0  0  0  0  0  0  0  0  0
   11.9810   12.2542   22.7842 C   0  0  0  0  0  0  0  0  0  0  0  0
    8.8970    9.7904   24.1723 C   0  0  0  0  0  0  0  0  0  0  0  0
    7.9107   10.1609   25.0714 C   0  0  0  0  0  0  0  0  0  0  0  0
    7.6997   11.4855   25.3190 C   0  0  0  0  0  0  0  0  0  0  0  0
    6.7929   12.0364   26.1922 N   0  0  0  0  0  0  0  0  0  0  0  0
  1  2  2  0
  2  3  1  0
  3  4  1  0
  4  5  2  0
  5  6  1  0
  6  7  1  0
  7  8  2  0
  7  9  1  0
  9 10  1  0
 10 11  1  0
 11 12  1  0
 12 13  1  0
 13 14  2  0
 13 15  1  0
 15 16  1  0
 12 17  1  0
 17 18  1  0
  6 19  2  0
 19 20  1  0
 20 21  2  0
 21 22  1  0
 22  2  1  0
 21  4  1  0
 18  9  1  0
M  END
>  <distance_score>  (583) 
1.404917

>  <ref_pdb>  (583) 
A1778a

>  <ref_mols>  (583) 
A1778a

>  <alias>  (583) 
None

>  <original SMILES>  (583) 
O=C1Cc2cc(C(=O)C3CCN(C(=O)CO)CC3)ccc2N1

>  <inchikey>  (583) 
DSWPNAIUGQHHCN-UHFFFAOYSA-N

>  <exports>  (583) 
['/opt/xchem-fragalysis-2/maxwin/2A_HIPPO/hippo/A71EV2A_10_recipes/Recipe_1LPUPHX_poses.sdf', '/opt/xchem-fragalysis-2/maxwin/2A_HIPPO/hippo/A71EV2A_10_recipes/Recipe_1LPVPY0_poses.sdf']

>  <original ID>  (583) 
DSWPNAIUGQHHCN-UHFFFAOYSA-N

>  <energy_score>  (583) 
26.241898

>  <tags>  (583) 
[]

>  <HIPPO ID>  (583) 
178256

>  <name>  (583) 
DSWPNAIUGQHHCN-UHFFFAOYSA-N

$$$$
ANBAAHVCCNMFEA-UHFFFAOYSA-N
     RDKit          3D

 23 25  0  0  0  0  0  0  0  0999 V2000
   17.8035   11.1186   25.6414 C   0  0  0  0  0  0  0  0  0  0  0  0
   17.3837   12.4593   25.7351 O   0  0  0  0  0  0  0  0  0  0  0  0
   16.0131   12.7583   25.5606 C   0  0  0  0  0  0  0  0  0  0  0  0
   15.4383   13.0732   24.1596 C   0  0  0  0  0  0  0  0  0  0  0  0
   16.1402   13.2122   23.1777 O   0  0  0  0  0  0  0  0  0  0  0  0
   14.0774   13.1572   23.8419 N   0  0  0  0  0  0  0  0  0  0  0  0
   13.7374   12.9209   22.3873 C   0  0  0  0  0  0  0  0  0  0  0  0
   12.7162   11.9606   21.8646 C   0  0  0  0  0  0  0  0  0  0  0  0
   11.5978   11.9709   22.8354 C   0  0  0  0  0  0  0  0  0  0  0  0
   10.7150   10.7750   22.6557 C   0  0  0  0  0  0  0  0  0  0  0  0
   11.0351    9.7204   22.1282 O   0  0  0  0  0  0  0  0  0  0  0  0
    9.4422   10.9678   23.3644 C   0  0  0  0  0  0  0  0  0  0  0  0
    8.9247    9.9066   24.0904 C   0  0  0  0  0  0  0  0  0  0  0  0
    7.9191   10.1825   25.0057 C   0  0  0  0  0  0  0  0  0  0  0  0
    7.5674   11.4853   25.2551 C   0  0  0  0  0  0  0  0  0  0  0  0
    8.0713   12.5258   24.5157 C   0  0  0  0  0  0  0  0  0  0  0  0
    8.9314   12.2769   23.4926 C   0  0  0  0  0  0  0  0  0  0  0  0
    7.5472   13.8222   25.0113 C   0  0  0  0  0  0  0  0  0  0  0  0
    6.6504   13.3650   26.1626 C   0  0  0  0  0  0  0  0  0  0  0  0
    6.0120   14.0695   26.9238 O   0  0  0  0  0  0  0  0  0  0  0  0
    6.6948   11.9754   26.2023 N   0  0  0  0  0  0  0  0  0  0  0  0
   11.9410   12.0484   24.3451 C   0  0  0  0  0  0  0  0  0  0  0  0
   13.0397   12.9895   24.8050 C   0  0  0  0  0  0  0  0  0  0  0  0
  1  2  1  0
  2  3  1  0
  3  4  1  0
  4  5  2  0
  4  6  1  0
  6  7  1  0
  7  8  1  0
  8  9  1  0
  9 10  1  0
 10 11  2  0
 10 12  1  0
 12 13  2  0
 13 14  1  0
 14 15  2  0
 15 16  1  0
 16 17  2  0
 16 18  1  0
 18 19  1  0
 19 20  2  0
 19 21  1  0
  9 22  1  0
 22 23  1  0
 23  6  1  0
 17 12  1  0
 21 15  1  0
M  END
>  <distance_score>  (584) 
1.485405

>  <ref_pdb>  (584) 
A1778a

>  <ref_mols>  (584) 
A1778a

>  <alias>  (584) 
None

>  <original SMILES>  (584) 
COCC(=O)N1CCC(C(=O)c2ccc3c(c2)CC(=O)N3)CC1

>  <inchikey>  (584) 
ANBAAHVCCNMFEA-UHFFFAOYSA-N

>  <exports>  (584) 
['/opt/xchem-fragalysis-2/maxwin/2A_HIPPO/hippo/A71EV2A_10_recipes/Recipe_1LPUPHX_poses.sdf', '/opt/xchem-fragalysis-2/maxwin/2A_HIPPO/hippo/A71EV2A_10_recipes/Recipe_1LPVPY0_poses.sdf']

>  <original ID>  (584) 
ANBAAHVCCNMFEA-UHFFFAOYSA-N

>  <energy_score>  (584) 
2.302695

>  <tags>  (584) 
[]

>  <HIPPO ID>  (584) 
178278

>  <name>  (584) 
ANBAAHVCCNMFEA-UHFFFAOYSA-N

$$$$
GXGCYYVZROHTED-LLVKDONJSA-N
     RDKit          3D

 24 26  0  0  0  0  0  0  0  0999 V2000
   16.7180   13.9988   19.8129 C   0  0  0  0  0  0  0  0  0  0  0  0
   15.6334   12.7890   20.2578 C   0  0  2  0  0  0  0  0  0  0  0  0
   14.5025   12.7466   19.2317 C   0  0  0  0  0  0  0  0  0  0  0  0
   13.6644   12.7176   18.4295 N   0  0  0  0  0  0  0  0  0  0  0  0
   15.0145   12.6386   21.6148 C   0  0  0  0  0  0  0  0  0  0  0  0
   15.5102   13.0889   22.6515 O   0  0  0  0  0  0  0  0  0  0  0  0
   13.7408   12.1085   21.6119 N   0  0  0  0  0  0  0  0  0  0  0  0
   12.7998   12.8703   22.3008 C   0  0  0  0  0  0  0  0  0  0  0  0
   11.5364   12.2401   22.7489 C   0  0  0  0  0  0  0  0  0  0  0  0
   11.5407   10.7623   22.8148 C   0  0  0  0  0  0  0  0  0  0  0  0
   10.2097   10.1254   22.9188 C   0  0  0  0  0  0  0  0  0  0  0  0
    9.9959    9.0232   22.4197 O   0  0  0  0  0  0  0  0  0  0  0  0
    9.2063   10.7259   23.8094 C   0  0  0  0  0  0  0  0  0  0  0  0
    8.4505    9.8089   24.5305 C   0  0  0  0  0  0  0  0  0  0  0  0
    7.4321   10.2496   25.3650 C   0  0  0  0  0  0  0  0  0  0  0  0
    7.3078   11.5840   25.5730 C   0  0  0  0  0  0  0  0  0  0  0  0
    8.0602   12.5030   24.8877 C   0  0  0  0  0  0  0  0  0  0  0  0
    8.9457   12.0938   23.9328 C   0  0  0  0  0  0  0  0  0  0  0  0
    7.6769   13.8745   25.3033 C   0  0  0  0  0  0  0  0  0  0  0  0
    6.5861   13.5801   26.3494 C   0  0  0  0  0  0  0  0  0  0  0  0
    5.9391   14.3644   27.0199 O   0  0  0  0  0  0  0  0  0  0  0  0
    6.4326   12.2101   26.4208 N   0  0  0  0  0  0  0  0  0  0  0  0
   12.2322   10.1338   21.6348 C   0  0  0  0  0  0  0  0  0  0  0  0
   13.2376   10.9845   20.8854 C   0  0  0  0  0  0  0  0  0  0  0  0
  2  1  1  1
  2  3  1  0
  3  4  3  0
  2  5  1  0
  5  6  2  0
  5  7  1  0
  7  8  1  0
  8  9  1  0
  9 10  1  0
 10 11  1  0
 11 12  2  0
 11 13  1  0
 13 14  2  0
 14 15  1  0
 15 16  2  0
 16 17  1  0
 17 18  2  0
 17 19  1  0
 19 20  1  0
 20 21  2  0
 20 22  1  0
 10 23  1  0
 23 24  1  0
 24  7  1  0
 18 13  1  0
 22 16  1  0
M  END
>  <distance_score>  (585) 
1.819429

>  <ref_pdb>  (585) 
A1778a

>  <ref_mols>  (585) 
A1778a

>  <alias>  (585) 
None

>  <original SMILES>  (585) 
C[C@H](C#N)C(=O)N1CCC(C(=O)c2ccc3c(c2)CC(=O)N3)CC1

>  <inchikey>  (585) 
GXGCYYVZROHTED-LLVKDONJSA-N

>  <exports>  (585) 
['/opt/xchem-fragalysis-2/maxwin/2A_HIPPO/hippo/A71EV2A_10_recipes/Recipe_1LPVPY0_poses.sdf']

>  <original ID>  (585) 
GXGCYYVZROHTED-LLVKDONJSA-N

>  <energy_score>  (585) 
55.318463

>  <tags>  (585) 
[]

>  <HIPPO ID>  (585) 
178319

>  <name>  (585) 
GXGCYYVZROHTED-LLVKDONJSA-N

$$$$
HNUGGDDOKSTSTE-ZDUSSCGKSA-N
     RDKit          3D

 24 26  0  0  0  0  0  0  0  0999 V2000
   12.3964   16.0418   20.0389 N   0  0  0  0  0  0  0  0  0  0  0  0
   11.7283   14.9157   19.3975 C   0  0  1  0  0  0  0  0  0  0  0  0
   11.2588   15.3244   18.0223 C   0  0  0  0  0  0  0  0  0  0  0  0
   11.5582   17.0371   17.5419 Cl  0  0  0  0  0  0  0  0  0  0  0  0
   12.5483   13.5676   19.3578 C   0  0  0  0  0  0  0  0  0  0  0  0
   13.1777   13.1453   18.3916 O   0  0  0  0  0  0  0  0  0  0  0  0
   12.6284   12.7496   20.4746 N   0  0  0  0  0  0  0  0  0  0  0  0
   13.4773   11.6175   20.5552 C   0  0  0  0  0  0  0  0  0  0  0  0
   12.7056   10.4973   21.2224 C   0  0  0  0  0  0  0  0  0  0  0  0
   11.9126   10.8008   22.4952 C   0  0  0  0  0  0  0  0  0  0  0  0
   10.5361   10.2557   22.4581 C   0  0  0  0  0  0  0  0  0  0  0  0
   10.2946    9.2100   21.8642 O   0  0  0  0  0  0  0  0  0  0  0  0
    9.5349   10.7782   23.3995 C   0  0  0  0  0  0  0  0  0  0  0  0
    8.8946    9.8055   24.1626 C   0  0  0  0  0  0  0  0  0  0  0  0
    7.9132   10.1905   25.0543 C   0  0  0  0  0  0  0  0  0  0  0  0
    7.6952   11.5212   25.2584 C   0  0  0  0  0  0  0  0  0  0  0  0
    8.3305   12.4995   24.5257 C   0  0  0  0  0  0  0  0  0  0  0  0
    9.1888   12.1346   23.5200 C   0  0  0  0  0  0  0  0  0  0  0  0
    7.8499   13.8415   24.9722 C   0  0  0  0  0  0  0  0  0  0  0  0
    6.8149   13.4551   26.0467 C   0  0  0  0  0  0  0  0  0  0  0  0
    6.1071   14.1799   26.7223 O   0  0  0  0  0  0  0  0  0  0  0  0
    6.7976   12.0774   26.1348 N   0  0  0  0  0  0  0  0  0  0  0  0
   12.0690   12.2316   22.8915 C   0  0  0  0  0  0  0  0  0  0  0  0
   12.0354   13.1058   21.6778 C   0  0  0  0  0  0  0  0  0  0  0  0
  2  1  1  6
  2  3  1  0
  3  4  1  0
  2  5  1  0
  5  6  2  0
  5  7  1  0
  7  8  1  0
  8  9  1  0
  9 10  1  0
 10 11  1  0
 11 12  2  0
 11 13  1  0
 13 14  2  0
 14 15  1  0
 15 16  2  0
 16 17  1  0
 17 18  2  0
 17 19  1  0
 19 20  1  0
 20 21  2  0
 20 22  1  0
 10 23  1  0
 23 24  1  0
 24  7  1  0
 18 13  1  0
 22 16  1  0
M  END
>  <distance_score>  (586) 
1.398415

>  <ref_pdb>  (586) 
A1778a

>  <ref_mols>  (586) 
A1778a

>  <alias>  (586) 
None

>  <original SMILES>  (586) 
N[C@@H](CCl)C(=O)N1CCC(C(=O)c2ccc3c(c2)CC(=O)N3)CC1

>  <inchikey>  (586) 
HNUGGDDOKSTSTE-ZDUSSCGKSA-N

>  <exports>  (586) 
['/opt/xchem-fragalysis-2/maxwin/2A_HIPPO/hippo/A71EV2A_10_recipes/Recipe_1LPVPY0_poses.sdf']

>  <original ID>  (586) 
HNUGGDDOKSTSTE-ZDUSSCGKSA-N

>  <energy_score>  (586) 
25.314076

>  <tags>  (586) 
[]

>  <HIPPO ID>  (586) 
178329

>  <name>  (586) 
HNUGGDDOKSTSTE-ZDUSSCGKSA-N

$$$$
SCZWTBNKISDUDG-UHFFFAOYSA-N
     RDKit          3D

 24 26  0  0  0  0  0  0  0  0999 V2000
    6.3473   14.0259   26.6711 O   0  0  0  0  0  0  0  0  0  0  0  0
    7.1863   13.3241   26.1354 C   0  0  0  0  0  0  0  0  0  0  0  0
    8.6048   13.7029   25.6716 C   0  0  0  0  0  0  0  0  0  0  0  0
    9.1394   12.3705   25.2373 C   0  0  0  0  0  0  0  0  0  0  0  0
   10.3871   11.9956   24.7984 C   0  0  0  0  0  0  0  0  0  0  0  0
   10.4869   10.7578   24.1464 C   0  0  0  0  0  0  0  0  0  0  0  0
   11.4959   10.5152   23.1070 C   0  0  0  0  0  0  0  0  0  0  0  0
   11.9507    9.3802   22.9792 O   0  0  0  0  0  0  0  0  0  0  0  0
   11.6025   11.5446   21.9997 C   0  0  0  0  0  0  0  0  0  0  0  0
   10.6776   12.7705   22.0863 C   0  0  0  0  0  0  0  0  0  0  0  0
   10.7583   13.8351   20.9909 C   0  0  0  0  0  0  0  0  0  0  0  0
   12.0467   13.9439   20.3117 N   0  0  0  0  0  0  0  0  0  0  0  0
   11.9995   14.8913   19.2728 C   0  0  0  0  0  0  0  0  0  0  0  0
   11.8630   14.5359   18.1109 O   0  0  0  0  0  0  0  0  0  0  0  0
   12.1745   16.3274   19.7546 C   0  0  0  0  0  0  0  0  0  0  0  0
   12.3260   17.4335   18.7309 C   0  0  0  0  0  0  0  0  0  0  0  0
   12.2570   18.8136   19.3792 C   0  0  0  0  0  0  0  0  0  0  0  0
   13.3111   19.0063   20.2217 F   0  0  0  0  0  0  0  0  0  0  0  0
   12.8236   12.6863   20.0683 C   0  0  0  0  0  0  0  0  0  0  0  0
   12.9386   11.8710   21.3409 C   0  0  0  0  0  0  0  0  0  0  0  0
    9.4590    9.8136   24.2038 C   0  0  0  0  0  0  0  0  0  0  0  0
    8.2891   10.1389   24.8626 C   0  0  0  0  0  0  0  0  0  0  0  0
    8.1236   11.4316   25.2855 C   0  0  0  0  0  0  0  0  0  0  0  0
    6.9906   11.9862   25.8351 N   0  0  0  0  0  0  0  0  0  0  0  0
  1  2  2  0
  2  3  1  0
  3  4  1  0
  4  5  2  0
  5  6  1  0
  6  7  1  0
  7  8  2  0
  7  9  1  0
  9 10  1  0
 10 11  1  0
 11 12  1  0
 12 13  1  0
 13 14  2  0
 13 15  1  0
 15 16  1  0
 16 17  1  0
 17 18  1  0
 12 19  1  0
 19 20  1  0
  6 21  2  0
 21 22  1  0
 22 23  2  0
 23 24  1  0
 24  2  1  0
 23  4  1  0
 20  9  1  0
M  END
>  <distance_score>  (587) 
1.049891

>  <ref_pdb>  (587) 
A1778a

>  <ref_mols>  (587) 
A1778a

>  <alias>  (587) 
None

>  <original SMILES>  (587) 
O=C1Cc2cc(C(=O)C3CCN(C(=O)CCCF)CC3)ccc2N1

>  <inchikey>  (587) 
SCZWTBNKISDUDG-UHFFFAOYSA-N

>  <exports>  (587) 
['/opt/xchem-fragalysis-2/maxwin/2A_HIPPO/hippo/A71EV2A_10_recipes/Recipe_1LPVPY0_poses.sdf']

>  <original ID>  (587) 
SCZWTBNKISDUDG-UHFFFAOYSA-N

>  <energy_score>  (587) 
12.744594

>  <tags>  (587) 
[]

>  <HIPPO ID>  (587) 
178337

>  <name>  (587) 
SCZWTBNKISDUDG-UHFFFAOYSA-N

$$$$
PUNHBLIXSHQSQV-QFYYESIMSA-N
     RDKit          3D

 25 27  0  0  0  0  0  0  0  0999 V2000
   16.5680   14.6222   18.4922 C   0  0  0  0  0  0  0  0  0  0  0  0
   16.7379   13.9947   19.8214 C   0  0  2  0  0  0  0  0  0  0  0  0
   18.1034   13.8025   19.8208 O   0  0  0  0  0  0  0  0  0  0  0  0
   15.7853   12.8146   20.3264 C   0  0  2  0  0  0  0  0  0  0  0  0
   14.7851   12.7619   19.3705 F   0  0  0  0  0  0  0  0  0  0  0  0
   15.1340   12.6954   21.6787 C   0  0  0  0  0  0  0  0  0  0  0  0
   15.5888   13.1192   22.7450 O   0  0  0  0  0  0  0  0  0  0  0  0
   13.8433   12.2078   21.5941 N   0  0  0  0  0  0  0  0  0  0  0  0
   13.3350   11.2256   20.7008 C   0  0  0  0  0  0  0  0  0  0  0  0
   12.3491   10.3085   21.4215 C   0  0  0  0  0  0  0  0  0  0  0  0
   11.6153   10.8176   22.6387 C   0  0  0  0  0  0  0  0  0  0  0  0
   10.2928   10.1662   22.7381 C   0  0  0  0  0  0  0  0  0  0  0  0
   10.0926    9.0726   22.2178 O   0  0  0  0  0  0  0  0  0  0  0  0
    9.2974   10.7334   23.6679 C   0  0  0  0  0  0  0  0  0  0  0  0
    8.5850    9.7952   24.4056 C   0  0  0  0  0  0  0  0  0  0  0  0
    7.5833   10.2176   25.2682 C   0  0  0  0  0  0  0  0  0  0  0  0
    7.4308   11.5502   25.4883 C   0  0  0  0  0  0  0  0  0  0  0  0
    8.1429   12.4912   24.7908 C   0  0  0  0  0  0  0  0  0  0  0  0
    9.0074   12.0986   23.8078 C   0  0  0  0  0  0  0  0  0  0  0  0
    7.7335   13.8536   25.2225 C   0  0  0  0  0  0  0  0  0  0  0  0
    6.6599   13.5272   26.2764 C   0  0  0  0  0  0  0  0  0  0  0  0
    5.9929   14.2934   26.9482 O   0  0  0  0  0  0  0  0  0  0  0  0
    6.5498   12.1520   26.3498 N   0  0  0  0  0  0  0  0  0  0  0  0
   11.6166   12.2883   22.7035 C   0  0  0  0  0  0  0  0  0  0  0  0
   12.8950   12.9267   22.3194 C   0  0  0  0  0  0  0  0  0  0  0  0
  2  1  1  6
  2  3  1  0
  2  4  1  0
  4  5  1  6
  4  6  1  0
  6  7  2  0
  6  8  1  0
  8  9  1  0
  9 10  1  0
 10 11  1  0
 11 12  1  0
 12 13  2  0
 12 14  1  0
 14 15  2  0
 15 16  1  0
 16 17  2  0
 17 18  1  0
 18 19  2  0
 18 20  1  0
 20 21  1  0
 21 22  2  0
 21 23  1  0
 11 24  1  0
 24 25  1  0
 25  8  1  0
 19 14  1  0
 23 17  1  0
M  END
>  <distance_score>  (588) 
1.682726

>  <ref_pdb>  (588) 
A1778a

>  <ref_mols>  (588) 
A1778a

>  <alias>  (588) 
None

>  <original SMILES>  (588) 
C[C@H](O)[C@H](F)C(=O)N1CCC(C(=O)c2ccc3c(c2)CC(=O)N3)CC1

>  <inchikey>  (588) 
PUNHBLIXSHQSQV-QFYYESIMSA-N

>  <exports>  (588) 
['/opt/xchem-fragalysis-2/maxwin/2A_HIPPO/hippo/A71EV2A_10_recipes/Recipe_1LPVPY0_poses.sdf']

>  <original ID>  (588) 
PUNHBLIXSHQSQV-QFYYESIMSA-N

>  <energy_score>  (588) 
56.17611

>  <tags>  (588) 
[]

>  <HIPPO ID>  (588) 
178354

>  <name>  (588) 
PUNHBLIXSHQSQV-QFYYESIMSA-N

$$$$
PUNHBLIXSHQSQV-QLJPJBMISA-N
     RDKit          3D

 25 27  0  0  0  0  0  0  0  0999 V2000
   13.2772   18.3089   18.7097 C   0  0  0  0  0  0  0  0  0  0  0  0
   12.0528   17.3902   18.6067 C   0  0  1  0  0  0  0  0  0  0  0  0
   11.6951   17.2535   17.2418 O   0  0  0  0  0  0  0  0  0  0  0  0
   12.1924   16.0895   19.3951 C   0  0  1  0  0  0  0  0  0  0  0  0
   11.4659   16.1991   20.5312 F   0  0  0  0  0  0  0  0  0  0  0  0
   12.0975   14.6554   18.7663 C   0  0  0  0  0  0  0  0  0  0  0  0
   11.9115   14.4868   17.5681 O   0  0  0  0  0  0  0  0  0  0  0  0
   12.4117   13.5289   19.5671 N   0  0  0  0  0  0  0  0  0  0  0  0
   13.4060   12.4954   19.2299 C   0  0  0  0  0  0  0  0  0  0  0  0
   13.5951   11.3871   20.2754 C   0  0  0  0  0  0  0  0  0  0  0  0
   12.5915   11.3434   21.4265 C   0  0  0  0  0  0  0  0  0  0  0  0
   11.4042   10.4898   21.8552 C   0  0  0  0  0  0  0  0  0  0  0  0
   11.3494    9.3403   21.4262 O   0  0  0  0  0  0  0  0  0  0  0  0
   10.3921   10.8574   22.9223 C   0  0  0  0  0  0  0  0  0  0  0  0
    9.7698    9.7757   23.5738 C   0  0  0  0  0  0  0  0  0  0  0  0
    8.7446    9.9790   24.4999 C   0  0  0  0  0  0  0  0  0  0  0  0
    8.4030   11.2667   24.8301 C   0  0  0  0  0  0  0  0  0  0  0  0
    9.0102   12.3522   24.2364 C   0  0  0  0  0  0  0  0  0  0  0  0
    9.9504   12.1546   23.2432 C   0  0  0  0  0  0  0  0  0  0  0  0
    8.4201   13.6241   24.7725 C   0  0  0  0  0  0  0  0  0  0  0  0
    7.3559   13.0893   25.7373 C   0  0  0  0  0  0  0  0  0  0  0  0
    6.5831   13.7329   26.4248 O   0  0  0  0  0  0  0  0  0  0  0  0
    7.4195   11.7001   25.6984 N   0  0  0  0  0  0  0  0  0  0  0  0
   12.6195   12.7034   21.9733 C   0  0  0  0  0  0  0  0  0  0  0  0
   11.9672   13.6040   20.9232 C   0  0  0  0  0  0  0  0  0  0  0  0
  2  1  1  6
  2  3  1  0
  2  4  1  0
  4  5  1  1
  4  6  1  0
  6  7  2  0
  6  8  1  0
  8  9  1  0
  9 10  1  0
 10 11  1  0
 11 12  1  0
 12 13  2  0
 12 14  1  0
 14 15  2  0
 15 16  1  0
 16 17  2  0
 17 18  1  0
 18 19  2  0
 18 20  1  0
 20 21  1  0
 21 22  2  0
 21 23  1  0
 11 24  1  0
 24 25  1  0
 25  8  1  0
 19 14  1  0
 23 17  1  0
M  END
>  <distance_score>  (589) 
0.767591

>  <ref_pdb>  (589) 
A1778a

>  <ref_mols>  (589) 
A1778a

>  <alias>  (589) 
None

>  <original SMILES>  (589) 
C[C@@H](O)[C@@H](F)C(=O)N1CCC(C(=O)c2ccc3c(c2)CC(=O)N3)CC1

>  <inchikey>  (589) 
PUNHBLIXSHQSQV-QLJPJBMISA-N

>  <exports>  (589) 
['/opt/xchem-fragalysis-2/maxwin/2A_HIPPO/hippo/A71EV2A_10_recipes/Recipe_1LPVPY0_poses.sdf']

>  <original ID>  (589) 
PUNHBLIXSHQSQV-QLJPJBMISA-N

>  <energy_score>  (589) 
49.601219

>  <tags>  (589) 
[]

>  <HIPPO ID>  (589) 
178355

>  <name>  (589) 
PUNHBLIXSHQSQV-QLJPJBMISA-N

$$$$
NJUUPDSBWFQTPR-XSFVSMFZSA-N
     RDKit          3D

 25 27  0  0  0  0  0  0  0  0999 V2000
   13.4885   12.6741   18.2882 N   0  0  0  0  0  0  0  0  0  0  0  0
   13.4628   12.3059   19.3844 C   0  0  0  0  0  0  0  0  0  0  0  0
   13.5387   11.8628   20.7332 C   0  0  0  0  0  0  0  0  0  0  0  0
   14.6219   12.2056   21.3574 N   0  0  0  0  0  0  0  0  0  0  0  0
   15.6016   12.6418   20.4782 O   0  0  0  0  0  0  0  0  0  0  0  0
   12.6397   10.8404   21.2890 C   0  0  0  0  0  0  0  0  0  0  0  0
   12.8415    9.7452   20.7791 O   0  0  0  0  0  0  0  0  0  0  0  0
   11.7144   10.9691   22.3028 N   0  0  0  0  0  0  0  0  0  0  0  0
   11.5433    9.7584   23.0775 C   0  0  0  0  0  0  0  0  0  0  0  0
   10.1268    9.5819   23.4266 C   0  0  0  0  0  0  0  0  0  0  0  0
    9.6527   10.7682   24.2888 C   0  0  0  0  0  0  0  0  0  0  0  0
    8.3061   10.2960   24.7632 C   0  0  0  0  0  0  0  0  0  0  0  0
    8.0452    9.0959   24.6284 O   0  0  0  0  0  0  0  0  0  0  0  0
    7.3176   11.0395   25.5819 C   0  0  0  0  0  0  0  0  0  0  0  0
    6.2371   10.2440   26.0852 C   0  0  0  0  0  0  0  0  0  0  0  0
    5.3478   10.6477   27.0658 C   0  0  0  0  0  0  0  0  0  0  0  0
    5.5303   11.9086   27.5112 C   0  0  0  0  0  0  0  0  0  0  0  0
    6.5394   12.7286   27.0050 C   0  0  0  0  0  0  0  0  0  0  0  0
    7.4478   12.3366   26.0290 C   0  0  0  0  0  0  0  0  0  0  0  0
    6.4514   14.0154   27.7266 C   0  0  0  0  0  0  0  0  0  0  0  0
    5.3078   13.8285   28.6925 C   0  0  0  0  0  0  0  0  0  0  0  0
    4.9120   14.6760   29.4710 O   0  0  0  0  0  0  0  0  0  0  0  0
    4.8179   12.5546   28.5024 N   0  0  0  0  0  0  0  0  0  0  0  0
    9.8282   12.0761   23.5290 C   0  0  0  0  0  0  0  0  0  0  0  0
   11.2209   12.1951   22.8722 C   0  0  0  0  0  0  0  0  0  0  0  0
  1  2  3  0
  2  3  1  0
  3  4  2  0
  4  5  1  0
  3  6  1  0
  6  7  2  0
  6  8  1  0
  8  9  1  0
  9 10  1  0
 10 11  1  0
 11 12  1  0
 12 13  2  0
 12 14  1  0
 14 15  2  0
 15 16  1  0
 16 17  2  0
 17 18  1  0
 18 19  2  0
 18 20  1  0
 20 21  1  0
 21 22  2  0
 21 23  1  0
 11 24  1  0
 24 25  1  0
 25  8  1  0
 19 14  1  0
 23 17  1  0
M  END
>  <distance_score>  (590) 
4.318157

>  <ref_pdb>  (590) 
A1778a

>  <ref_mols>  (590) 
A1778a

>  <alias>  (590) 
None

>  <original SMILES>  (590) 
N#C/C(=N\O)C(=O)N1CCC(C(=O)c2ccc3c(c2)CC(=O)N3)CC1

>  <inchikey>  (590) 
NJUUPDSBWFQTPR-XSFVSMFZSA-N

>  <exports>  (590) 
['/opt/xchem-fragalysis-2/maxwin/2A_HIPPO/hippo/A71EV2A_10_recipes/Recipe_1LPVPY0_poses.sdf']

>  <original ID>  (590) 
NJUUPDSBWFQTPR-XSFVSMFZSA-N

>  <energy_score>  (590) 
-35.177225

>  <tags>  (590) 
[]

>  <HIPPO ID>  (590) 
178410

>  <name>  (590) 
NJUUPDSBWFQTPR-XSFVSMFZSA-N

$$$$
WQSYUXTWMKFDLH-UHFFFAOYSA-N
     RDKit          3D

 17 18  0  0  0  0  0  0  0  0999 V2000
    5.4610   12.3129   26.8043 C   0  0  0  0  0  0  0  0  0  0  0  0
    6.4396   11.4528   26.0411 C   0  0  0  0  0  0  0  0  0  0  0  0
    6.3021   10.2324   26.0459 O   0  0  0  0  0  0  0  0  0  0  0  0
    7.4277   12.1264   25.3600 N   0  0  0  0  0  0  0  0  0  0  0  0
    7.5091   13.5841   25.2379 C   0  0  0  0  0  0  0  0  0  0  0  0
    8.5053   13.8997   24.1258 C   0  0  0  0  0  0  0  0  0  0  0  0
    9.1270   12.5622   23.9046 C   0  0  0  0  0  0  0  0  0  0  0  0
   10.1276   12.2506   23.0027 C   0  0  0  0  0  0  0  0  0  0  0  0
   10.6289   10.9432   22.9278 C   0  0  0  0  0  0  0  0  0  0  0  0
   11.7361   10.5492   21.9867 C   0  0  0  0  0  0  0  0  0  0  0  0
   11.7464    9.3946   21.5745 O   0  0  0  0  0  0  0  0  0  0  0  0
   12.6944   11.4757   21.5770 N   0  0  0  0  0  0  0  0  0  0  0  0
   13.6644   11.2251   20.5268 C   0  0  0  0  0  0  0  0  0  0  0  0
   12.8832   12.7205   22.2215 C   0  0  0  0  0  0  0  0  0  0  0  0
    9.9780    9.9420   23.6661 C   0  0  0  0  0  0  0  0  0  0  0  0
    8.8750   10.2484   24.4801 C   0  0  0  0  0  0  0  0  0  0  0  0
    8.4805   11.5651   24.6190 C   0  0  0  0  0  0  0  0  0  0  0  0
  1  2  1  0
  2  3  2  0
  2  4  1  0
  4  5  1  0
  5  6  1  0
  6  7  1  0
  7  8  2  0
  8  9  1  0
  9 10  1  0
 10 11  2  0
 10 12  1  0
 12 13  1  0
 12 14  1  0
  9 15  2  0
 15 16  1  0
 16 17  2  0
 17  4  1  0
 17  7  1  0
M  END
>  <distance_score>  (591) 
0.630974

>  <ref_pdb>  (591) 
A1778a

>  <ref_mols>  (591) 
A1778a

>  <alias>  (591) 
None

>  <original SMILES>  (591) 
CC(=O)N1CCc2cc(C(=O)N(C)C)ccc21

>  <inchikey>  (591) 
WQSYUXTWMKFDLH-UHFFFAOYSA-N

>  <exports>  (591) 
['/opt/xchem-fragalysis-2/maxwin/2A_HIPPO/hippo/A71EV2A_10_recipes/Recipe_1LPVPY0_poses.sdf']

>  <original ID>  (591) 
WQSYUXTWMKFDLH-UHFFFAOYSA-N

>  <energy_score>  (591) 
-26.630887

>  <tags>  (591) 
[]

>  <HIPPO ID>  (591) 
178547

>  <name>  (591) 
WQSYUXTWMKFDLH-UHFFFAOYSA-N

$$$$
IKLARAKZDVECHT-UHFFFAOYSA-N
     RDKit          3D

 18 19  0  0  0  0  0  0  0  0999 V2000
   12.8804   12.7200   22.2264 C   0  0  0  0  0  0  0  0  0  0  0  0
   12.6866   11.4751   21.5843 N   0  0  0  0  0  0  0  0  0  0  0  0
   13.6550   11.2215   20.5330 C   0  0  0  0  0  0  0  0  0  0  0  0
   11.7260   10.5519   21.9961 C   0  0  0  0  0  0  0  0  0  0  0  0
   11.7319    9.3976   21.5823 O   0  0  0  0  0  0  0  0  0  0  0  0
   10.6199   10.9477   22.9394 C   0  0  0  0  0  0  0  0  0  0  0  0
    9.9644    9.9461   23.6723 C   0  0  0  0  0  0  0  0  0  0  0  0
    8.8580   10.2515   24.4836 C   0  0  0  0  0  0  0  0  0  0  0  0
    8.4614   11.5678   24.6270 C   0  0  0  0  0  0  0  0  0  0  0  0
    9.1199   12.5657   23.9254 C   0  0  0  0  0  0  0  0  0  0  0  0
   10.1228   12.2559   23.0234 C   0  0  0  0  0  0  0  0  0  0  0  0
    8.5172   13.9079   24.1647 C   0  0  0  0  0  0  0  0  0  0  0  0
    7.4817   13.5856   25.2396 C   0  0  0  0  0  0  0  0  0  0  0  0
    7.3937   12.1268   25.3544 N   0  0  0  0  0  0  0  0  0  0  0  0
    6.4024   11.4398   26.0258 C   0  0  0  0  0  0  0  0  0  0  0  0
    6.3150   10.2114   26.0301 O   0  0  0  0  0  0  0  0  0  0  0  0
    5.3585   12.2537   26.7717 C   0  0  0  0  0  0  0  0  0  0  0  0
    5.9783   12.6985   28.3735 Cl  0  0  0  0  0  0  0  0  0  0  0  0
  1  2  1  0
  2  3  1  0
  2  4  1  0
  4  5  2  0
  4  6  1  0
  6  7  2  0
  7  8  1  0
  8  9  2  0
  9 10  1  0
 10 11  2  0
 10 12  1  0
 12 13  1  0
 13 14  1  0
 14 15  1  0
 15 16  2  0
 15 17  1  0
 17 18  1  0
 11  6  1  0
 14  9  1  0
M  END
>  <distance_score>  (592) 
0.630461

>  <ref_pdb>  (592) 
A1778a

>  <ref_mols>  (592) 
A1778a

>  <alias>  (592) 
None

>  <original SMILES>  (592) 
CN(C)C(=O)c1ccc2c(c1)CCN2C(=O)CCl

>  <inchikey>  (592) 
IKLARAKZDVECHT-UHFFFAOYSA-N

>  <exports>  (592) 
['/opt/xchem-fragalysis-2/maxwin/2A_HIPPO/hippo/A71EV2A_10_recipes/Recipe_1LPVPY0_poses.sdf']

>  <original ID>  (592) 
IKLARAKZDVECHT-UHFFFAOYSA-N

>  <energy_score>  (592) 
-16.173962

>  <tags>  (592) 
[]

>  <HIPPO ID>  (592) 
179292

>  <name>  (592) 
IKLARAKZDVECHT-UHFFFAOYSA-N

$$$$
JIDMTJMEFFYGFH-UHFFFAOYSA-N
     RDKit          3D

 18 19  0  0  0  0  0  0  0  0999 V2000
   12.8906   12.7203   22.2189 C   0  0  0  0  0  0  0  0  0  0  0  0
   12.7015   11.4764   21.5716 N   0  0  0  0  0  0  0  0  0  0  0  0
   13.6716   11.2260   20.5218 C   0  0  0  0  0  0  0  0  0  0  0  0
   11.7442   10.5489   21.9816 C   0  0  0  0  0  0  0  0  0  0  0  0
   11.7533    9.3940   21.5710 O   0  0  0  0  0  0  0  0  0  0  0  0
   10.6378   10.9459   22.9204 C   0  0  0  0  0  0  0  0  0  0  0  0
    9.9902    9.9521   23.6706 C   0  0  0  0  0  0  0  0  0  0  0  0
    8.8878   10.2666   24.4826 C   0  0  0  0  0  0  0  0  0  0  0  0
    8.4899   11.5841   24.6056 C   0  0  0  0  0  0  0  0  0  0  0  0
    9.1330   12.5724   23.8759 C   0  0  0  0  0  0  0  0  0  0  0  0
   10.1344   12.2525   22.9793 C   0  0  0  0  0  0  0  0  0  0  0  0
    8.5067   13.9107   24.0705 C   0  0  0  0  0  0  0  0  0  0  0  0
    7.5179   13.6108   25.1915 C   0  0  0  0  0  0  0  0  0  0  0  0
    7.4364   12.1551   25.3404 N   0  0  0  0  0  0  0  0  0  0  0  0
    6.4425   11.4838   26.0301 C   0  0  0  0  0  0  0  0  0  0  0  0
    6.3261   10.2600   26.0129 O   0  0  0  0  0  0  0  0  0  0  0  0
    5.4441   12.3721   26.7732 C   0  0  0  0  0  0  0  0  0  0  0  0
    4.7151   11.5416   28.2133 S   0  0  0  0  0  0  0  0  0  0  0  0
  1  2  1  0
  2  3  1  0
  2  4  1  0
  4  5  2  0
  4  6  1  0
  6  7  2  0
  7  8  1  0
  8  9  2  0
  9 10  1  0
 10 11  2  0
 10 12  1  0
 12 13  1  0
 13 14  1  0
 14 15  1  0
 15 16  2  0
 15 17  1  0
 17 18  1  0
 11  6  1  0
 14  9  1  0
M  END
>  <distance_score>  (593) 
0.638647

>  <ref_pdb>  (593) 
A1778a

>  <ref_mols>  (593) 
A1778a

>  <alias>  (593) 
None

>  <original SMILES>  (593) 
CN(C)C(=O)c1ccc2c(c1)CCN2C(=O)CS

>  <inchikey>  (593) 
JIDMTJMEFFYGFH-UHFFFAOYSA-N

>  <exports>  (593) 
['/opt/xchem-fragalysis-2/maxwin/2A_HIPPO/hippo/A71EV2A_10_recipes/Recipe_1LPVPY0_poses.sdf']

>  <original ID>  (593) 
JIDMTJMEFFYGFH-UHFFFAOYSA-N

>  <energy_score>  (593) 
-25.615183

>  <tags>  (593) 
[]

>  <HIPPO ID>  (593) 
179302

>  <name>  (593) 
JIDMTJMEFFYGFH-UHFFFAOYSA-N

$$$$
JLDGNOPSHHPRNA-UHFFFAOYSA-N
     RDKit          3D

 18 19  0  0  0  0  0  0  0  0999 V2000
   12.9029   12.7053   22.2152 C   0  0  0  0  0  0  0  0  0  0  0  0
   12.7073   11.4606   21.5722 N   0  0  0  0  0  0  0  0  0  0  0  0
   13.6699   11.2143   20.5136 C   0  0  0  0  0  0  0  0  0  0  0  0
   11.7475   10.5356   21.9813 C   0  0  0  0  0  0  0  0  0  0  0  0
   11.7675    9.3738   21.5904 O   0  0  0  0  0  0  0  0  0  0  0  0
   10.6363   10.9316   22.9146 C   0  0  0  0  0  0  0  0  0  0  0  0
    9.9669    9.9346   23.6430 C   0  0  0  0  0  0  0  0  0  0  0  0
    8.8682   10.2529   24.4588 C   0  0  0  0  0  0  0  0  0  0  0  0
    8.4948   11.5758   24.6049 C   0  0  0  0  0  0  0  0  0  0  0  0
    9.1711   12.5658   23.9121 C   0  0  0  0  0  0  0  0  0  0  0  0
   10.1594   12.2445   23.0032 C   0  0  0  0  0  0  0  0  0  0  0  0
    8.6458   13.9268   24.2091 C   0  0  0  0  0  0  0  0  0  0  0  0
    7.4860   13.6040   25.1421 C   0  0  0  0  0  0  0  0  0  0  0  0
    7.4405   12.1508   25.3317 N   0  0  0  0  0  0  0  0  0  0  0  0
    6.4407   11.4870   26.0089 C   0  0  0  0  0  0  0  0  0  0  0  0
    6.3204   10.2628   26.0352 O   0  0  0  0  0  0  0  0  0  0  0  0
    5.4480   12.3546   26.8041 C   0  0  0  0  0  0  0  0  0  0  0  0
    4.8119   13.4101   26.1147 O   0  0  0  0  0  0  0  0  0  0  0  0
  1  2  1  0
  2  3  1  0
  2  4  1  0
  4  5  2  0
  4  6  1  0
  6  7  2  0
  7  8  1  0
  8  9  2  0
  9 10  1  0
 10 11  2  0
 10 12  1  0
 12 13  1  0
 13 14  1  0
 14 15  1  0
 15 16  2  0
 15 17  1  0
 17 18  1  0
 11  6  1  0
 14  9  1  0
M  END
>  <distance_score>  (594) 
0.609228

>  <ref_pdb>  (594) 
A1778a

>  <ref_mols>  (594) 
A1778a

>  <alias>  (594) 
None

>  <original SMILES>  (594) 
CN(C)C(=O)c1ccc2c(c1)CCN2C(=O)CO

>  <inchikey>  (594) 
JLDGNOPSHHPRNA-UHFFFAOYSA-N

>  <exports>  (594) 
['/opt/xchem-fragalysis-2/maxwin/2A_HIPPO/hippo/A71EV2A_10_recipes/Recipe_1LPVPY0_poses.sdf']

>  <original ID>  (594) 
JLDGNOPSHHPRNA-UHFFFAOYSA-N

>  <energy_score>  (594) 
-37.982832

>  <tags>  (594) 
[]

>  <HIPPO ID>  (594) 
179420

>  <name>  (594) 
JLDGNOPSHHPRNA-UHFFFAOYSA-N

$$$$
GQLGDQJNLKMEDX-UHFFFAOYSA-N
     RDKit          3D

 18 19  0  0  0  0  0  0  0  0999 V2000
   12.9099   12.7166   22.2084 C   0  0  0  0  0  0  0  0  0  0  0  0
   12.7228   11.4700   21.5615 N   0  0  0  0  0  0  0  0  0  0  0  0
   13.6860   11.2224   20.5061 C   0  0  0  0  0  0  0  0  0  0  0  0
   11.7675   10.5420   21.9780 C   0  0  0  0  0  0  0  0  0  0  0  0
   11.7745    9.3800   21.5908 O   0  0  0  0  0  0  0  0  0  0  0  0
   10.6605   10.9644   22.8987 C   0  0  0  0  0  0  0  0  0  0  0  0
   10.0172   10.0177   23.7108 C   0  0  0  0  0  0  0  0  0  0  0  0
    8.9086   10.3812   24.4974 C   0  0  0  0  0  0  0  0  0  0  0  0
    8.4944   11.6995   24.5138 C   0  0  0  0  0  0  0  0  0  0  0  0
    9.1309   12.6335   23.7106 C   0  0  0  0  0  0  0  0  0  0  0  0
   10.1512   12.2662   22.8629 C   0  0  0  0  0  0  0  0  0  0  0  0
    8.4686   13.9646   23.7468 C   0  0  0  0  0  0  0  0  0  0  0  0
    7.4994   13.7579   24.8979 C   0  0  0  0  0  0  0  0  0  0  0  0
    7.4263   12.3204   25.1827 N   0  0  0  0  0  0  0  0  0  0  0  0
    6.4650   11.7132   25.9653 C   0  0  0  0  0  0  0  0  0  0  0  0
    6.4087   10.5009   26.1710 O   0  0  0  0  0  0  0  0  0  0  0  0
    5.4225   12.6421   26.6134 C   0  0  0  0  0  0  0  0  0  0  0  0
    5.9898   13.3876   27.7524 N   0  0  0  0  0  0  0  0  0  0  0  0
  1  2  1  0
  2  3  1  0
  2  4  1  0
  4  5  2  0
  4  6  1  0
  6  7  2  0
  7  8  1  0
  8  9  2  0
  9 10  1  0
 10 11  2  0
 10 12  1  0
 12 13  1  0
 13 14  1  0
 14 15  1  0
 15 16  2  0
 15 17  1  0
 17 18  1  0
 11  6  1  0
 14  9  1  0
M  END
>  <distance_score>  (595) 
0.728288

>  <ref_pdb>  (595) 
A1778a

>  <ref_mols>  (595) 
A1778a

>  <alias>  (595) 
None

>  <original SMILES>  (595) 
CN(C)C(=O)c1ccc2c(c1)CCN2C(=O)CN

>  <inchikey>  (595) 
GQLGDQJNLKMEDX-UHFFFAOYSA-N

>  <exports>  (595) 
['/opt/xchem-fragalysis-2/maxwin/2A_HIPPO/hippo/A71EV2A_10_recipes/Recipe_1LPVPY0_poses.sdf']

>  <original ID>  (595) 
GQLGDQJNLKMEDX-UHFFFAOYSA-N

>  <energy_score>  (595) 
-39.73658

>  <tags>  (595) 
[]

>  <HIPPO ID>  (595) 
179496

>  <name>  (595) 
GQLGDQJNLKMEDX-UHFFFAOYSA-N

$$$$
IQSUCXVQKPRYKD-UHFFFAOYSA-N
     RDKit          3D

 19 20  0  0  0  0  0  0  0  0999 V2000
    4.5017   13.0593   26.2570 C   0  0  0  0  0  0  0  0  0  0  0  0
    5.5632   12.4834   26.8311 C   0  0  0  0  0  0  0  0  0  0  0  0
    5.9601   12.7690   28.4793 Cl  0  0  0  0  0  0  0  0  0  0  0  0
    6.4749   11.5852   26.0580 C   0  0  0  0  0  0  0  0  0  0  0  0
    6.3099   10.3709   26.1181 O   0  0  0  0  0  0  0  0  0  0  0  0
    7.4514   12.2205   25.3218 N   0  0  0  0  0  0  0  0  0  0  0  0
    7.5798   13.6740   25.1811 C   0  0  0  0  0  0  0  0  0  0  0  0
    8.5577   13.9473   24.0471 C   0  0  0  0  0  0  0  0  0  0  0  0
    9.1534   12.5958   23.8574 C   0  0  0  0  0  0  0  0  0  0  0  0
   10.1493   12.2575   22.9642 C   0  0  0  0  0  0  0  0  0  0  0  0
   10.6348   10.9462   22.9161 C   0  0  0  0  0  0  0  0  0  0  0  0
   11.7453   10.5396   21.9867 C   0  0  0  0  0  0  0  0  0  0  0  0
   11.7590    9.3774   21.5976 O   0  0  0  0  0  0  0  0  0  0  0  0
   12.7049   11.4634   21.5714 N   0  0  0  0  0  0  0  0  0  0  0  0
   12.9070   12.7070   22.2180 C   0  0  0  0  0  0  0  0  0  0  0  0
   13.6722   11.2109   20.5189 C   0  0  0  0  0  0  0  0  0  0  0  0
    9.9676    9.9646   23.6687 C   0  0  0  0  0  0  0  0  0  0  0  0
    8.8678   10.2988   24.4793 C   0  0  0  0  0  0  0  0  0  0  0  0
    8.4910   11.6229   24.5910 C   0  0  0  0  0  0  0  0  0  0  0  0
  1  2  2  0
  2  3  1  0
  2  4  1  0
  4  5  2  0
  4  6  1  0
  6  7  1  0
  7  8  1  0
  8  9  1  0
  9 10  2  0
 10 11  1  0
 11 12  1  0
 12 13  2  0
 12 14  1  0
 14 15  1  0
 14 16  1  0
 11 17  2  0
 17 18  1  0
 18 19  2  0
 19  6  1  0
 19  9  1  0
M  END
>  <distance_score>  (596) 
0.63416

>  <ref_pdb>  (596) 
A1778a

>  <ref_mols>  (596) 
A1778a

>  <alias>  (596) 
None

>  <original SMILES>  (596) 
C=C(Cl)C(=O)N1CCc2cc(C(=O)N(C)C)ccc21

>  <inchikey>  (596) 
IQSUCXVQKPRYKD-UHFFFAOYSA-N

>  <exports>  (596) 
['/opt/xchem-fragalysis-2/maxwin/2A_HIPPO/hippo/A71EV2A_10_recipes/Recipe_1LPVPY0_poses.sdf']

>  <original ID>  (596) 
IQSUCXVQKPRYKD-UHFFFAOYSA-N

>  <energy_score>  (596) 
-33.848019

>  <tags>  (596) 
[]

>  <HIPPO ID>  (596) 
179732

>  <name>  (596) 
IQSUCXVQKPRYKD-UHFFFAOYSA-N

$$$$
SCXKNPMAZLSLSM-UHFFFAOYSA-N
     RDKit          3D

 19 20  0  0  0  0  0  0  0  0999 V2000
    4.0973   13.6981   25.5807 C   0  0  0  0  0  0  0  0  0  0  0  0
    5.1178   13.7029   26.5729 O   0  0  0  0  0  0  0  0  0  0  0  0
    5.5444   12.4063   26.9395 C   0  0  0  0  0  0  0  0  0  0  0  0
    6.4549   11.5495   26.0239 C   0  0  0  0  0  0  0  0  0  0  0  0
    6.2925   10.3275   26.0037 O   0  0  0  0  0  0  0  0  0  0  0  0
    7.4549   12.1949   25.3299 N   0  0  0  0  0  0  0  0  0  0  0  0
    7.5725   13.6485   25.1922 C   0  0  0  0  0  0  0  0  0  0  0  0
    8.6365   13.9448   24.1457 C   0  0  0  0  0  0  0  0  0  0  0  0
    9.1745   12.5826   23.8885 C   0  0  0  0  0  0  0  0  0  0  0  0
   10.1611   12.2517   22.9831 C   0  0  0  0  0  0  0  0  0  0  0  0
   10.6404   10.9399   22.9127 C   0  0  0  0  0  0  0  0  0  0  0  0
   11.7493   10.5441   21.9779 C   0  0  0  0  0  0  0  0  0  0  0  0
   11.7563    9.3891   21.5676 O   0  0  0  0  0  0  0  0  0  0  0  0
   12.7077   11.4722   21.5680 N   0  0  0  0  0  0  0  0  0  0  0  0
   12.9056   12.7166   22.2157 C   0  0  0  0  0  0  0  0  0  0  0  0
   13.6759   11.2204   20.5171 C   0  0  0  0  0  0  0  0  0  0  0  0
    9.9708    9.9512   23.6520 C   0  0  0  0  0  0  0  0  0  0  0  0
    8.8681   10.2784   24.4619 C   0  0  0  0  0  0  0  0  0  0  0  0
    8.4959   11.6029   24.5944 C   0  0  0  0  0  0  0  0  0  0  0  0
  1  2  1  0
  2  3  1  0
  3  4  1  0
  4  5  2  0
  4  6  1  0
  6  7  1  0
  7  8  1  0
  8  9  1  0
  9 10  2  0
 10 11  1  0
 11 12  1  0
 12 13  2  0
 12 14  1  0
 14 15  1  0
 14 16  1  0
 11 17  2  0
 17 18  1  0
 18 19  2  0
 19  6  1  0
 19  9  1  0
M  END
>  <distance_score>  (597) 
0.612301

>  <ref_pdb>  (597) 
A1778a

>  <ref_mols>  (597) 
A1778a

>  <alias>  (597) 
None

>  <original SMILES>  (597) 
COCC(=O)N1CCc2cc(C(=O)N(C)C)ccc21

>  <inchikey>  (597) 
SCXKNPMAZLSLSM-UHFFFAOYSA-N

>  <exports>  (597) 
['/opt/xchem-fragalysis-2/maxwin/2A_HIPPO/hippo/A71EV2A_10_recipes/Recipe_1LPVPY0_poses.sdf']

>  <original ID>  (597) 
SCXKNPMAZLSLSM-UHFFFAOYSA-N

>  <energy_score>  (597) 
-25.671298

>  <tags>  (597) 
[]

>  <HIPPO ID>  (597) 
180504

>  <name>  (597) 
SCXKNPMAZLSLSM-UHFFFAOYSA-N

$$$$
IQNLCGSYPVVIOS-UHFFFAOYSA-N
     RDKit          3D

 19 20  0  0  0  0  0  0  0  0999 V2000
   12.8867   12.7207   22.2252 C   0  0  0  0  0  0  0  0  0  0  0  0
   12.6938   11.4765   21.5800 N   0  0  0  0  0  0  0  0  0  0  0  0
   13.6621   11.2241   20.5292 C   0  0  0  0  0  0  0  0  0  0  0  0
   11.7327   10.5523   21.9901 C   0  0  0  0  0  0  0  0  0  0  0  0
   11.7407    9.3978   21.5770 O   0  0  0  0  0  0  0  0  0  0  0  0
   10.6241   10.9504   22.9289 C   0  0  0  0  0  0  0  0  0  0  0  0
    9.9689    9.9539   23.6710 C   0  0  0  0  0  0  0  0  0  0  0  0
    8.8602   10.2651   24.4769 C   0  0  0  0  0  0  0  0  0  0  0  0
    8.4615   11.5825   24.5981 C   0  0  0  0  0  0  0  0  0  0  0  0
    9.1159   12.5754   23.8866 C   0  0  0  0  0  0  0  0  0  0  0  0
   10.1249   12.2590   22.9960 C   0  0  0  0  0  0  0  0  0  0  0  0
    8.5076   13.9194   24.1097 C   0  0  0  0  0  0  0  0  0  0  0  0
    7.4517   13.6022   25.1658 C   0  0  0  0  0  0  0  0  0  0  0  0
    7.4012   12.1475   25.3194 N   0  0  0  0  0  0  0  0  0  0  0  0
    6.4348   11.4838   26.0419 C   0  0  0  0  0  0  0  0  0  0  0  0
    6.2927   10.2729   26.1489 O   0  0  0  0  0  0  0  0  0  0  0  0
    5.4805   12.3714   26.8605 C   0  0  0  0  0  0  0  0  0  0  0  0
    5.5926   12.2181   28.2198 N   0  0  0  0  0  0  0  0  0  0  0  0
    4.6800   13.1313   26.3456 O   0  0  0  0  0  0  0  0  0  0  0  0
  1  2  1  0
  2  3  1  0
  2  4  1  0
  4  5  2  0
  4  6  1  0
  6  7  2  0
  7  8  1  0
  8  9  2  0
  9 10  1  0
 10 11  2  0
 10 12  1  0
 12 13  1  0
 13 14  1  0
 14 15  1  0
 15 16  2  0
 15 17  1  0
 17 18  1  0
 17 19  2  0
 11  6  1  0
 14  9  1  0
M  END
>  <distance_score>  (598) 
0.644167

>  <ref_pdb>  (598) 
A1778a

>  <ref_mols>  (598) 
A1778a

>  <alias>  (598) 
None

>  <original SMILES>  (598) 
CN(C)C(=O)c1ccc2c(c1)CCN2C(=O)C(N)=O

>  <inchikey>  (598) 
IQNLCGSYPVVIOS-UHFFFAOYSA-N

>  <exports>  (598) 
['/opt/xchem-fragalysis-2/maxwin/2A_HIPPO/hippo/A71EV2A_10_recipes/Recipe_1LPVPY0_poses.sdf']

>  <original ID>  (598) 
IQNLCGSYPVVIOS-UHFFFAOYSA-N

>  <energy_score>  (598) 
-54.88924

>  <tags>  (598) 
[]

>  <HIPPO ID>  (598) 
180623

>  <name>  (598) 
IQNLCGSYPVVIOS-UHFFFAOYSA-N

$$$$
RRPSLDXSKZJFJZ-UHFFFAOYSA-N
     RDKit          3D

 19 20  0  0  0  0  0  0  0  0999 V2000
   12.8898   12.7171   22.2209 C   0  0  0  0  0  0  0  0  0  0  0  0
   12.6962   11.4700   21.5811 N   0  0  0  0  0  0  0  0  0  0  0  0
   13.6588   11.2175   20.5246 C   0  0  0  0  0  0  0  0  0  0  0  0
   11.7361   10.5472   21.9965 C   0  0  0  0  0  0  0  0  0  0  0  0
   11.7421    9.3870   21.6015 O   0  0  0  0  0  0  0  0  0  0  0  0
   10.6290   10.9580   22.9287 C   0  0  0  0  0  0  0  0  0  0  0  0
    9.9778    9.9806   23.6980 C   0  0  0  0  0  0  0  0  0  0  0  0
    8.8716   10.3119   24.5010 C   0  0  0  0  0  0  0  0  0  0  0  0
    8.4699   11.6309   24.5919 C   0  0  0  0  0  0  0  0  0  0  0  0
    9.1172   12.6010   23.8406 C   0  0  0  0  0  0  0  0  0  0  0  0
   10.1261   12.2645   22.9589 C   0  0  0  0  0  0  0  0  0  0  0  0
    8.4862   13.9419   23.9888 C   0  0  0  0  0  0  0  0  0  0  0  0
    7.5033   13.6731   25.1209 C   0  0  0  0  0  0  0  0  0  0  0  0
    7.4065   12.2202   25.3019 N   0  0  0  0  0  0  0  0  0  0  0  0
    6.4328   11.5713   26.0330 C   0  0  0  0  0  0  0  0  0  0  0  0
    6.3527   10.3456   26.1180 O   0  0  0  0  0  0  0  0  0  0  0  0
    5.3742   12.4209   26.7098 C   0  0  0  0  0  0  0  0  0  0  0  0
    5.9139   13.1833   27.8376 C   0  0  0  0  0  0  0  0  0  0  0  0
    6.3193   13.8322   28.7126 N   0  0  0  0  0  0  0  0  0  0  0  0
  1  2  1  0
  2  3  1  0
  2  4  1  0
  4  5  2  0
  4  6  1  0
  6  7  2  0
  7  8  1  0
  8  9  2  0
  9 10  1  0
 10 11  2  0
 10 12  1  0
 12 13  1  0
 13 14  1  0
 14 15  1  0
 15 16  2  0
 15 17  1  0
 17 18  1  0
 18 19  3  0
 11  6  1  0
 14  9  1  0
M  END
>  <distance_score>  (599) 
0.66237

>  <ref_pdb>  (599) 
A1778a

>  <ref_mols>  (599) 
A1778a

>  <alias>  (599) 
None

>  <original SMILES>  (599) 
CN(C)C(=O)c1ccc2c(c1)CCN2C(=O)CC#N

>  <inchikey>  (599) 
RRPSLDXSKZJFJZ-UHFFFAOYSA-N

>  <exports>  (599) 
['/opt/xchem-fragalysis-2/maxwin/2A_HIPPO/hippo/A71EV2A_10_recipes/Recipe_1LPVPY0_poses.sdf']

>  <original ID>  (599) 
RRPSLDXSKZJFJZ-UHFFFAOYSA-N

>  <energy_score>  (599) 
-89.397594

>  <tags>  (599) 
[]

>  <HIPPO ID>  (599) 
180637

>  <name>  (599) 
RRPSLDXSKZJFJZ-UHFFFAOYSA-N

$$$$
OIJARATXOURBDA-SNVBAGLBSA-N
     RDKit          3D

 20 21  0  0  0  0  0  0  0  0999 V2000
    4.5669   13.3688   26.1108 C   0  0  0  0  0  0  0  0  0  0  0  0
    5.4443   12.3888   26.8787 C   0  0  2  0  0  0  0  0  0  0  0  0
    6.0941   13.0314   28.0283 C   0  0  0  0  0  0  0  0  0  0  0  0
    6.5768   13.5691   28.9381 N   0  0  0  0  0  0  0  0  0  0  0  0
    6.4492   11.5878   26.0445 C   0  0  0  0  0  0  0  0  0  0  0  0
    6.3432   10.3573   26.0549 O   0  0  0  0  0  0  0  0  0  0  0  0
    7.4240   12.2372   25.3184 N   0  0  0  0  0  0  0  0  0  0  0  0
    7.5436   13.6877   25.1409 C   0  0  0  0  0  0  0  0  0  0  0  0
    8.5764   13.9607   24.0576 C   0  0  0  0  0  0  0  0  0  0  0  0
    9.1460   12.6021   23.8615 C   0  0  0  0  0  0  0  0  0  0  0  0
   10.1424   12.2609   22.9686 C   0  0  0  0  0  0  0  0  0  0  0  0
   10.6303   10.9511   22.9228 C   0  0  0  0  0  0  0  0  0  0  0  0
   11.7380   10.5450   21.9888 C   0  0  0  0  0  0  0  0  0  0  0  0
   11.7424    9.3886   21.5825 O   0  0  0  0  0  0  0  0  0  0  0  0
   12.6986   11.4697   21.5753 N   0  0  0  0  0  0  0  0  0  0  0  0
   13.6667   11.2168   20.5241 C   0  0  0  0  0  0  0  0  0  0  0  0
   12.8949   12.7155   22.2196 C   0  0  0  0  0  0  0  0  0  0  0  0
    9.9667    9.9747   23.6821 C   0  0  0  0  0  0  0  0  0  0  0  0
    8.8628   10.3123   24.4887 C   0  0  0  0  0  0  0  0  0  0  0  0
    8.4764   11.6358   24.5954 C   0  0  0  0  0  0  0  0  0  0  0  0
  2  1  1  6
  2  3  1  0
  3  4  3  0
  2  5  1  0
  5  6  2  0
  5  7  1  0
  7  8  1  0
  8  9  1  0
  9 10  1  0
 10 11  2  0
 11 12  1  0
 12 13  1  0
 13 14  2  0
 13 15  1  0
 15 16  1  0
 15 17  1  0
 12 18  2  0
 18 19  1  0
 19 20  2  0
 20  7  1  0
 20 10  1  0
M  END
>  <distance_score>  (600) 
0.637931

>  <ref_pdb>  (600) 
A1778a

>  <ref_mols>  (600) 
A1778a

>  <alias>  (600) 
None

>  <original SMILES>  (600) 
C[C@H](C#N)C(=O)N1CCc2cc(C(=O)N(C)C)ccc21

>  <inchikey>  (600) 
OIJARATXOURBDA-SNVBAGLBSA-N

>  <exports>  (600) 
['/opt/xchem-fragalysis-2/maxwin/2A_HIPPO/hippo/A71EV2A_10_recipes/Recipe_1LPVPY0_poses.sdf']

>  <original ID>  (600) 
OIJARATXOURBDA-SNVBAGLBSA-N

>  <energy_score>  (600) 
-22.110588

>  <tags>  (600) 
[]

>  <HIPPO ID>  (600) 
181178

>  <name>  (600) 
OIJARATXOURBDA-SNVBAGLBSA-N

$$$$
OIJARATXOURBDA-JTQLQIEISA-N
     RDKit          3D

 20 21  0  0  0  0  0  0  0  0999 V2000
    6.0809   12.8195   28.1534 C   0  0  0  0  0  0  0  0  0  0  0  0
    5.4424   12.2958   26.8702 C   0  0  1  0  0  0  0  0  0  0  0  0
    4.7552   13.3632   26.1450 C   0  0  0  0  0  0  0  0  0  0  0  0
    4.2371   14.2546   25.6159 N   0  0  0  0  0  0  0  0  0  0  0  0
    6.4445   11.5183   26.0172 C   0  0  0  0  0  0  0  0  0  0  0  0
    6.3532   10.2870   26.0204 O   0  0  0  0  0  0  0  0  0  0  0  0
    7.4559   12.1834   25.3516 N   0  0  0  0  0  0  0  0  0  0  0  0
    7.4544   13.6187   25.0282 C   0  0  0  0  0  0  0  0  0  0  0  0
    8.7083   13.9407   24.2356 C   0  0  0  0  0  0  0  0  0  0  0  0
    9.1864   12.5708   23.9115 C   0  0  0  0  0  0  0  0  0  0  0  0
   10.1684   12.2436   22.9994 C   0  0  0  0  0  0  0  0  0  0  0  0
   10.6395   10.9307   22.9139 C   0  0  0  0  0  0  0  0  0  0  0  0
   11.7491   10.5352   21.9793 C   0  0  0  0  0  0  0  0  0  0  0  0
   11.7656    9.3755   21.5825 O   0  0  0  0  0  0  0  0  0  0  0  0
   12.7084   11.4613   21.5682 N   0  0  0  0  0  0  0  0  0  0  0  0
   13.6758   11.2111   20.5161 C   0  0  0  0  0  0  0  0  0  0  0  0
   12.9097   12.7047   22.2155 C   0  0  0  0  0  0  0  0  0  0  0  0
    9.9681    9.9402   23.6493 C   0  0  0  0  0  0  0  0  0  0  0  0
    8.8744   10.2669   24.4720 C   0  0  0  0  0  0  0  0  0  0  0  0
    8.5053   11.5914   24.6171 C   0  0  0  0  0  0  0  0  0  0  0  0
  2  1  1  1
  2  3  1  0
  3  4  3  0
  2  5  1  0
  5  6  2  0
  5  7  1  0
  7  8  1  0
  8  9  1  0
  9 10  1  0
 10 11  2  0
 11 12  1  0
 12 13  1  0
 13 14  2  0
 13 15  1  0
 15 16  1  0
 15 17  1  0
 12 18  2  0
 18 19  1  0
 19 20  2  0
 20  7  1  0
 20 10  1  0
M  END
>  <distance_score>  (601) 
0.60818

>  <ref_pdb>  (601) 
A1778a

>  <ref_mols>  (601) 
A1778a

>  <alias>  (601) 
None

>  <original SMILES>  (601) 
C[C@@H](C#N)C(=O)N1CCc2cc(C(=O)N(C)C)ccc21

>  <inchikey>  (601) 
OIJARATXOURBDA-JTQLQIEISA-N

>  <exports>  (601) 
['/opt/xchem-fragalysis-2/maxwin/2A_HIPPO/hippo/A71EV2A_10_recipes/Recipe_1LPVPY0_poses.sdf']

>  <original ID>  (601) 
OIJARATXOURBDA-JTQLQIEISA-N

>  <energy_score>  (601) 
-30.511266

>  <tags>  (601) 
[]

>  <HIPPO ID>  (601) 
181179

>  <name>  (601) 
OIJARATXOURBDA-JTQLQIEISA-N

$$$$
YXYQRNFEDSZDDV-UHFFFAOYSA-N
     RDKit          3D

 20 22  0  0  0  0  0  0  0  0999 V2000
   12.8985   12.7091   22.2190 C   0  0  0  0  0  0  0  0  0  0  0  0
   12.7022   11.4670   21.5712 N   0  0  0  0  0  0  0  0  0  0  0  0
   13.6717   11.2168   20.5201 C   0  0  0  0  0  0  0  0  0  0  0  0
   11.7432   10.5426   21.9816 C   0  0  0  0  0  0  0  0  0  0  0  0
   11.7617    9.3814   21.5892 O   0  0  0  0  0  0  0  0  0  0  0  0
   10.6320   10.9406   22.9145 C   0  0  0  0  0  0  0  0  0  0  0  0
    9.9734    9.9413   23.6495 C   0  0  0  0  0  0  0  0  0  0  0  0
    8.8799   10.2546   24.4725 C   0  0  0  0  0  0  0  0  0  0  0  0
    8.5013   11.5749   24.6192 C   0  0  0  0  0  0  0  0  0  0  0  0
    9.1491   12.5677   23.9001 C   0  0  0  0  0  0  0  0  0  0  0  0
   10.1400   12.2506   22.9909 C   0  0  0  0  0  0  0  0  0  0  0  0
    8.5418   13.9095   24.1331 C   0  0  0  0  0  0  0  0  0  0  0  0
    7.5916   13.6041   25.2868 C   0  0  0  0  0  0  0  0  0  0  0  0
    7.4805   12.1495   25.3931 N   0  0  0  0  0  0  0  0  0  0  0  0
    6.5029   11.4900   26.1188 C   0  0  0  0  0  0  0  0  0  0  0  0
    6.3411   10.2689   26.0392 O   0  0  0  0  0  0  0  0  0  0  0  0
    5.6511   12.3720   27.0682 C   0  0  0  0  0  0  0  0  0  0  0  0
    4.4343   13.1117   26.4906 C   0  0  0  0  0  0  0  0  0  0  0  0
    3.6196   12.6676   27.6328 N   0  0  0  0  0  0  0  0  0  0  0  0
    4.6275   11.6485   27.9653 C   0  0  0  0  0  0  0  0  0  0  0  0
  1  2  1  0
  2  3  1  0
  2  4  1  0
  4  5  2  0
  4  6  1  0
  6  7  2  0
  7  8  1  0
  8  9  2  0
  9 10  1  0
 10 11  2  0
 10 12  1  0
 12 13  1  0
 13 14  1  0
 14 15  1  0
 15 16  2  0
 15 17  1  0
 17 18  1  0
 18 19  1  0
 19 20  1  0
 11  6  1  0
 20 17  1  0
 14  9  1  0
M  END
>  <distance_score>  (602) 
0.619567

>  <ref_pdb>  (602) 
A1778a

>  <ref_mols>  (602) 
A1778a

>  <alias>  (602) 
None

>  <original SMILES>  (602) 
CN(C)C(=O)c1ccc2c(c1)CCN2C(=O)C1CNC1

>  <inchikey>  (602) 
YXYQRNFEDSZDDV-UHFFFAOYSA-N

>  <exports>  (602) 
['/opt/xchem-fragalysis-2/maxwin/2A_HIPPO/hippo/A71EV2A_10_recipes/Recipe_1LPVPY0_poses.sdf']

>  <original ID>  (602) 
YXYQRNFEDSZDDV-UHFFFAOYSA-N

>  <energy_score>  (602) 
-27.229234

>  <tags>  (602) 
[]

>  <HIPPO ID>  (602) 
181252

>  <name>  (602) 
YXYQRNFEDSZDDV-UHFFFAOYSA-N

$$$$
ANSPRMSKFAEKII-NSHDSACASA-N
     RDKit          3D

 20 21  0  0  0  0  0  0  0  0999 V2000
   12.8841   12.7190   22.2157 C   0  0  0  0  0  0  0  0  0  0  0  0
   12.7046   11.4735   21.5696 N   0  0  0  0  0  0  0  0  0  0  0  0
   13.6728   11.2299   20.5166 C   0  0  0  0  0  0  0  0  0  0  0  0
   11.7440   10.5468   21.9724 C   0  0  0  0  0  0  0  0  0  0  0  0
   11.7576    9.3893   21.5698 O   0  0  0  0  0  0  0  0  0  0  0  0
   10.6334   10.9495   22.9029 C   0  0  0  0  0  0  0  0  0  0  0  0
    9.9995    9.9658   23.6763 C   0  0  0  0  0  0  0  0  0  0  0  0
    8.9170   10.2933   24.5097 C   0  0  0  0  0  0  0  0  0  0  0  0
    8.5245   11.6130   24.6281 C   0  0  0  0  0  0  0  0  0  0  0  0
    9.1307   12.5829   23.8447 C   0  0  0  0  0  0  0  0  0  0  0  0
   10.1192   12.2527   22.9378 C   0  0  0  0  0  0  0  0  0  0  0  0
    8.4804   13.9117   24.0111 C   0  0  0  0  0  0  0  0  0  0  0  0
    7.6215   13.6547   25.2451 C   0  0  0  0  0  0  0  0  0  0  0  0
    7.5445   12.2060   25.4505 N   0  0  0  0  0  0  0  0  0  0  0  0
    6.6061   11.5418   26.2036 C   0  0  0  0  0  0  0  0  0  0  0  0
    6.3660   10.3420   26.0170 O   0  0  0  0  0  0  0  0  0  0  0  0
    5.8729   12.2287   27.3890 C   0  0  1  0  0  0  0  0  0  0  0  0
    6.0738   13.6794   27.5729 N   0  0  0  0  0  0  0  0  0  0  0  0
    4.3935   11.8594   27.3029 C   0  0  0  0  0  0  0  0  0  0  0  0
    3.4381   12.4961   28.6698 Cl  0  0  0  0  0  0  0  0  0  0  0  0
  1  2  1  0
  2  3  1  0
  2  4  1  0
  4  5  2  0
  4  6  1  0
  6  7  2  0
  7  8  1  0
  8  9  2  0
  9 10  1  0
 10 11  2  0
 10 12  1  0
 12 13  1  0
 13 14  1  0
 14 15  1  0
 15 16  2  0
 15 17  1  0
 17 18  1  6
 17 19  1  0
 19 20  1  0
 11  6  1  0
 14  9  1  0
M  END
>  <distance_score>  (603) 
0.666676

>  <ref_pdb>  (603) 
A1778a

>  <ref_mols>  (603) 
A1778a

>  <alias>  (603) 
None

>  <original SMILES>  (603) 
CN(C)C(=O)c1ccc2c(c1)CCN2C(=O)[C@@H](N)CCl

>  <inchikey>  (603) 
ANSPRMSKFAEKII-NSHDSACASA-N

>  <exports>  (603) 
['/opt/xchem-fragalysis-2/maxwin/2A_HIPPO/hippo/A71EV2A_10_recipes/Recipe_1LPVPY0_poses.sdf']

>  <original ID>  (603) 
ANSPRMSKFAEKII-NSHDSACASA-N

>  <energy_score>  (603) 
-30.362311

>  <tags>  (603) 
[]

>  <HIPPO ID>  (603) 
181313

>  <name>  (603) 
ANSPRMSKFAEKII-NSHDSACASA-N

$$$$
ANSPRMSKFAEKII-NSHDSACASA-N
     RDKit          3D

 20 21  0  0  0  0  0  0  0  0999 V2000
   12.9083   12.7022   22.2086 C   0  0  0  0  0  0  0  0  0  0  0  0
   12.7192   11.4562   21.5614 N   0  0  0  0  0  0  0  0  0  0  0  0
   13.6843   11.2117   20.5064 C   0  0  0  0  0  0  0  0  0  0  0  0
   11.7638   10.5280   21.9767 C   0  0  0  0  0  0  0  0  0  0  0  0
   11.7850    9.3602   21.6081 O   0  0  0  0  0  0  0  0  0  0  0  0
   10.6487   10.9466   22.8892 C   0  0  0  0  0  0  0  0  0  0  0  0
    9.9991    9.9945   23.6910 C   0  0  0  0  0  0  0  0  0  0  0  0
    8.9065   10.3583   24.5000 C   0  0  0  0  0  0  0  0  0  0  0  0
    8.5099   11.6812   24.5482 C   0  0  0  0  0  0  0  0  0  0  0  0
    9.1366   12.6120   23.7330 C   0  0  0  0  0  0  0  0  0  0  0  0
   10.1434   12.2487   22.8666 C   0  0  0  0  0  0  0  0  0  0  0  0
    8.4882   13.9457   23.8006 C   0  0  0  0  0  0  0  0  0  0  0  0
    7.6180   13.7542   25.0307 C   0  0  0  0  0  0  0  0  0  0  0  0
    7.5105   12.3210   25.3129 N   0  0  0  0  0  0  0  0  0  0  0  0
    6.5683   11.7015   26.1085 C   0  0  0  0  0  0  0  0  0  0  0  0
    6.3544   10.4868   26.0051 O   0  0  0  0  0  0  0  0  0  0  0  0
    5.8926   12.4586   27.2939 C   0  0  1  0  0  0  0  0  0  0  0  0
    5.8191   13.9273   27.2558 N   0  0  0  0  0  0  0  0  0  0  0  0
    4.5190   11.8574   27.6392 C   0  0  0  0  0  0  0  0  0  0  0  0
    3.1789   12.7188   26.8326 Cl  0  0  0  0  0  0  0  0  0  0  0  0
  1  2  1  0
  2  3  1  0
  2  4  1  0
  4  5  2  0
  4  6  1  0
  6  7  2  0
  7  8  1  0
  8  9  2  0
  9 10  1  0
 10 11  2  0
 10 12  1  0
 12 13  1  0
 13 14  1  0
 14 15  1  0
 15 16  2  0
 15 17  1  0
 17 18  1  6
 17 19  1  0
 19 20  1  0
 11  6  1  0
 14  9  1  0
M  END
>  <distance_score>  (604) 
0.711046

>  <ref_pdb>  (604) 
A1778a

>  <ref_mols>  (604) 
A1778a

>  <alias>  (604) 
None

>  <original SMILES>  (604) 
CN(C)C(=O)c1ccc2c(c1)CCN2C(=O)[C@@H](N)CCl

>  <inchikey>  (604) 
ANSPRMSKFAEKII-NSHDSACASA-N

>  <exports>  (604) 
['/opt/xchem-fragalysis-2/maxwin/2A_HIPPO/hippo/A71EV2A_10_recipes/Recipe_1LPVPY0_poses.sdf']

>  <original ID>  (604) 
ANSPRMSKFAEKII-NSHDSACASA-N

>  <energy_score>  (604) 
-29.918977

>  <tags>  (604) 
[]

>  <HIPPO ID>  (604) 
181314

>  <name>  (604) 
ANSPRMSKFAEKII-NSHDSACASA-N

$$$$
DSWPNAIUGQHHCN-UHFFFAOYSA-N
     RDKit          3D

 22 24  0  0  0  0  0  0  0  0999 V2000
    6.0660   14.4406   27.2571 O   0  0  0  0  0  0  0  0  0  0  0  0
    6.7250   13.6539   26.6016 C   0  0  0  0  0  0  0  0  0  0  0  0
    8.0977   13.8442   25.9141 C   0  0  0  0  0  0  0  0  0  0  0  0
    8.3762   12.4667   25.4287 C   0  0  0  0  0  0  0  0  0  0  0  0
    9.4958   11.9428   24.8409 C   0  0  0  0  0  0  0  0  0  0  0  0
    9.4133   10.6353   24.3724 C   0  0  0  0  0  0  0  0  0  0  0  0
   10.4150    9.9599   23.5583 C   0  0  0  0  0  0  0  0  0  0  0  0
   10.3795    8.7320   23.4629 O   0  0  0  0  0  0  0  0  0  0  0  0
   11.5086   10.7291   22.9288 C   0  0  0  0  0  0  0  0  0  0  0  0
   11.9511    9.8006   21.8314 C   0  0  0  0  0  0  0  0  0  0  0  0
   13.0383   10.3309   20.9834 C   0  0  0  0  0  0  0  0  0  0  0  0
   12.9877   11.6846   20.6162 N   0  0  0  0  0  0  0  0  0  0  0  0
   14.0741   12.0963   19.8834 C   0  0  0  0  0  0  0  0  0  0  0  0
   13.9586   12.3764   18.6958 O   0  0  0  0  0  0  0  0  0  0  0  0
   15.3639   12.2233   20.6587 C   0  0  0  0  0  0  0  0  0  0  0  0
   15.2753   12.6295   21.9996 O   0  0  0  0  0  0  0  0  0  0  0  0
   12.3979   12.6223   21.5358 C   0  0  0  0  0  0  0  0  0  0  0  0
   11.2545   12.0991   22.3730 C   0  0  0  0  0  0  0  0  0  0  0  0
    8.3131    9.8423   24.6834 C   0  0  0  0  0  0  0  0  0  0  0  0
    7.2449   10.3502   25.3991 C   0  0  0  0  0  0  0  0  0  0  0  0
    7.2842   11.6675   25.6998 C   0  0  0  0  0  0  0  0  0  0  0  0
    6.3199   12.3603   26.3745 N   0  0  0  0  0  0  0  0  0  0  0  0
  1  2  2  0
  2  3  1  0
  3  4  1  0
  4  5  2  0
  5  6  1  0
  6  7  1  0
  7  8  2  0
  7  9  1  0
  9 10  1  0
 10 11  1  0
 11 12  1  0
 12 13  1  0
 13 14  2  0
 13 15  1  0
 15 16  1  0
 12 17  1  0
 17 18  1  0
  6 19  2  0
 19 20  1  0
 20 21  2  0
 21 22  1  0
 22  2  1  0
 21  4  1  0
 18  9  1  0
M  END
>  <distance_score>  (605) 
1.972403

>  <ref_pdb>  (605) 
A1778a

>  <ref_mols>  (605) 
A1778a

>  <alias>  (605) 
None

>  <original SMILES>  (605) 
O=C1Cc2cc(C(=O)C3CCN(C(=O)CO)CC3)ccc2N1

>  <inchikey>  (605) 
DSWPNAIUGQHHCN-UHFFFAOYSA-N

>  <exports>  (605) 
['/opt/xchem-fragalysis-2/maxwin/2A_HIPPO/hippo/A71EV2A_10_recipes/Recipe_1LPUPHX_poses.sdf', '/opt/xchem-fragalysis-2/maxwin/2A_HIPPO/hippo/A71EV2A_10_recipes/Recipe_1LPVPY0_poses.sdf']

>  <original ID>  (605) 
DSWPNAIUGQHHCN-UHFFFAOYSA-N

>  <energy_score>  (605) 
9.254468

>  <tags>  (605) 
[]

>  <HIPPO ID>  (605) 
181664

>  <name>  (605) 
DSWPNAIUGQHHCN-UHFFFAOYSA-N

$$$$
ZVXMTOGKCOHAQX-UHFFFAOYSA-N
     RDKit          3D

 22 24  0  0  0  0  0  0  0  0999 V2000
    6.5395   13.7307   26.3282 O   0  0  0  0  0  0  0  0  0  0  0  0
    7.3181   13.0511   25.6835 C   0  0  0  0  0  0  0  0  0  0  0  0
    8.4702   13.5379   24.7976 C   0  0  0  0  0  0  0  0  0  0  0  0
    9.0593   12.2398   24.3283 C   0  0  0  0  0  0  0  0  0  0  0  0
   10.1107   11.9951   23.4664 C   0  0  0  0  0  0  0  0  0  0  0  0
   10.5782   10.6859   23.2404 C   0  0  0  0  0  0  0  0  0  0  0  0
   11.7803   10.2831   22.3925 C   0  0  0  0  0  0  0  0  0  0  0  0
   11.9675    9.0803   22.2338 O   0  0  0  0  0  0  0  0  0  0  0  0
   12.5810   11.3085   21.5766 C   0  0  0  0  0  0  0  0  0  0  0  0
   13.6734   11.2516   20.5021 C   0  0  0  0  0  0  0  0  0  0  0  0
   13.4589   12.3559   19.3805 C   0  0  0  0  0  0  0  0  0  0  0  0
   12.4636   13.4261   19.6648 N   0  0  0  0  0  0  0  0  0  0  0  0
   12.1089   14.4946   18.8052 C   0  0  0  0  0  0  0  0  0  0  0  0
   11.8791   14.2570   17.6271 O   0  0  0  0  0  0  0  0  0  0  0  0
   12.0981   15.9456   19.3722 C   0  0  0  0  0  0  0  0  0  0  0  0
   11.9649   17.2597   18.1380 S   0  0  0  0  0  0  0  0  0  0  0  0
   11.9982   13.5599   21.0072 C   0  0  0  0  0  0  0  0  0  0  0  0
   12.6793   12.6974   22.0715 C   0  0  0  0  0  0  0  0  0  0  0  0
    9.8228    9.6368   23.7868 C   0  0  0  0  0  0  0  0  0  0  0  0
    8.6832    9.8869   24.5579 C   0  0  0  0  0  0  0  0  0  0  0  0
    8.3521   11.1851   24.8532 C   0  0  0  0  0  0  0  0  0  0  0  0
    7.3152   11.6600   25.6337 N   0  0  0  0  0  0  0  0  0  0  0  0
  1  2  2  0
  2  3  1  0
  3  4  1  0
  4  5  2  0
  5  6  1  0
  6  7  1  0
  7  8  2  0
  7  9  1  0
  9 10  1  0
 10 11  1  0
 11 12  1  0
 12 13  1  0
 13 14  2  0
 13 15  1  0
 15 16  1  0
 12 17  1  0
 17 18  1  0
  6 19  2  0
 19 20  1  0
 20 21  2  0
 21 22  1  0
 22  2  1  0
 21  4  1  0
 18  9  1  0
M  END
>  <distance_score>  (606) 
0.707603

>  <ref_pdb>  (606) 
A1778a

>  <ref_mols>  (606) 
A1778a

>  <alias>  (606) 
None

>  <original SMILES>  (606) 
O=C1Cc2cc(C(=O)C3CCN(C(=O)CS)CC3)ccc2N1

>  <inchikey>  (606) 
ZVXMTOGKCOHAQX-UHFFFAOYSA-N

>  <exports>  (606) 
['/opt/xchem-fragalysis-2/maxwin/2A_HIPPO/hippo/A71EV2A_10_recipes/Recipe_1LPUPHX_poses.sdf', '/opt/xchem-fragalysis-2/maxwin/2A_HIPPO/hippo/A71EV2A_10_recipes/Recipe_1LPVPY0_poses.sdf']

>  <original ID>  (606) 
ZVXMTOGKCOHAQX-UHFFFAOYSA-N

>  <energy_score>  (606) 
37.407233

>  <tags>  (606) 
[]

>  <HIPPO ID>  (606) 
181704

>  <name>  (606) 
ZVXMTOGKCOHAQX-UHFFFAOYSA-N

$$$$
KGBVVWICIGVOAB-UHFFFAOYSA-N
     RDKit          3D

 23 25  0  0  0  0  0  0  0  0999 V2000
   12.3980   15.9897   19.0717 C   0  0  0  0  0  0  0  0  0  0  0  0
   12.1562   14.6765   18.9138 C   0  0  0  0  0  0  0  0  0  0  0  0
   10.6147   14.3394   18.3138 Cl  0  0  0  0  0  0  0  0  0  0  0  0
   12.9673   13.3893   19.1856 C   0  0  0  0  0  0  0  0  0  0  0  0
   13.9376   12.9951   18.5483 O   0  0  0  0  0  0  0  0  0  0  0  0
   12.6825   12.6729   20.3194 N   0  0  0  0  0  0  0  0  0  0  0  0
   11.9761   13.2898   21.3673 C   0  0  0  0  0  0  0  0  0  0  0  0
   11.0311   12.4766   22.1882 C   0  0  0  0  0  0  0  0  0  0  0  0
   11.7435   11.2488   22.6399 C   0  0  0  0  0  0  0  0  0  0  0  0
   10.8949   10.1872   23.2614 C   0  0  0  0  0  0  0  0  0  0  0  0
   11.0156    8.9974   22.9848 O   0  0  0  0  0  0  0  0  0  0  0  0
    9.8675   10.6328   24.2175 C   0  0  0  0  0  0  0  0  0  0  0  0
    8.7918    9.7752   24.4169 C   0  0  0  0  0  0  0  0  0  0  0  0
    7.7041   10.2168   25.1517 C   0  0  0  0  0  0  0  0  0  0  0  0
    7.6568   11.5297   25.5100 C   0  0  0  0  0  0  0  0  0  0  0  0
    8.7165   12.3901   25.3315 C   0  0  0  0  0  0  0  0  0  0  0  0
    9.8871   11.9074   24.8094 C   0  0  0  0  0  0  0  0  0  0  0  0
    8.3253   13.7558   25.7948 C   0  0  0  0  0  0  0  0  0  0  0  0
    6.9261   13.4843   26.3877 C   0  0  0  0  0  0  0  0  0  0  0  0
    6.1797   14.2406   26.9824 O   0  0  0  0  0  0  0  0  0  0  0  0
    6.6161   12.1637   26.1375 N   0  0  0  0  0  0  0  0  0  0  0  0
   12.5001   10.6040   21.4813 C   0  0  0  0  0  0  0  0  0  0  0  0
   13.4320   11.5178   20.7123 C   0  0  0  0  0  0  0  0  0  0  0  0
  1  2  2  0
  2  3  1  0
  2  4  1  0
  4  5  2  0
  4  6  1  0
  6  7  1  0
  7  8  1  0
  8  9  1  0
  9 10  1  0
 10 11  2  0
 10 12  1  0
 12 13  2  0
 13 14  1  0
 14 15  2  0
 15 16  1  0
 16 17  2  0
 16 18  1  0
 18 19  1  0
 19 20  2  0
 19 21  1  0
  9 22  1  0
 22 23  1  0
 23  6  1  0
 17 12  1  0
 21 15  1  0
M  END
>  <distance_score>  (607) 
1.435435

>  <ref_pdb>  (607) 
A1778a

>  <ref_mols>  (607) 
A1778a

>  <alias>  (607) 
None

>  <original SMILES>  (607) 
C=C(Cl)C(=O)N1CCC(C(=O)c2ccc3c(c2)CC(=O)N3)CC1

>  <inchikey>  (607) 
KGBVVWICIGVOAB-UHFFFAOYSA-N

>  <exports>  (607) 
['/opt/xchem-fragalysis-2/maxwin/2A_HIPPO/hippo/A71EV2A_10_recipes/Recipe_1LPUPHX_poses.sdf', '/opt/xchem-fragalysis-2/maxwin/2A_HIPPO/hippo/A71EV2A_10_recipes/Recipe_1LPVPY0_poses.sdf']

>  <original ID>  (607) 
KGBVVWICIGVOAB-UHFFFAOYSA-N

>  <energy_score>  (607) 
-0.002579

>  <tags>  (607) 
[]

>  <HIPPO ID>  (607) 
182172

>  <name>  (607) 
KGBVVWICIGVOAB-UHFFFAOYSA-N

$$$$
PQUXRIKKCAPQTD-UHFFFAOYSA-N
     RDKit          3D

 23 25  0  0  0  0  0  0  0  0999 V2000
   11.6542   16.3893   17.7477 N   0  0  0  0  0  0  0  0  0  0  0  0
   11.5365   15.4473   18.4237 C   0  0  0  0  0  0  0  0  0  0  0  0
   11.4562   14.2262   19.2856 C   0  0  0  0  0  0  0  0  0  0  0  0
   12.0497   14.4410   20.6382 C   0  0  0  0  0  0  0  0  0  0  0  0
   12.4429   15.6160   20.6991 O   0  0  0  0  0  0  0  0  0  0  0  0
   12.3295   13.2895   21.6858 N   0  0  0  0  0  0  0  0  0  0  0  0
   11.8815   12.0149   21.3885 C   0  0  0  0  0  0  0  0  0  0  0  0
   11.8902   10.7413   22.1748 C   0  0  0  0  0  0  0  0  0  0  0  0
   11.5720   11.0408   23.6244 C   0  0  0  0  0  0  0  0  0  0  0  0
   10.1248   10.6379   23.7923 C   0  0  0  0  0  0  0  0  0  0  0  0
    9.7863    9.4715   23.5622 O   0  0  0  0  0  0  0  0  0  0  0  0
    9.0497   11.5413   24.2129 C   0  0  0  0  0  0  0  0  0  0  0  0
    8.1386   10.9721   25.1261 C   0  0  0  0  0  0  0  0  0  0  0  0
    6.9758   11.6181   25.5074 C   0  0  0  0  0  0  0  0  0  0  0  0
    6.7247   12.8035   24.8749 C   0  0  0  0  0  0  0  0  0  0  0  0
    7.5883   13.3730   23.9347 C   0  0  0  0  0  0  0  0  0  0  0  0
    8.7863   12.7688   23.6075 C   0  0  0  0  0  0  0  0  0  0  0  0
    6.9387   14.5947   23.3541 C   0  0  0  0  0  0  0  0  0  0  0  0
    5.6227   14.6506   24.1434 C   0  0  0  0  0  0  0  0  0  0  0  0
    4.7762   15.5227   24.1087 O   0  0  0  0  0  0  0  0  0  0  0  0
    5.5855   13.5633   24.9939 N   0  0  0  0  0  0  0  0  0  0  0  0
   12.1294   12.4214   24.0478 C   0  0  0  0  0  0  0  0  0  0  0  0
   13.0767   13.1378   22.9755 C   0  0  0  0  0  0  0  0  0  0  0  0
  1  2  3  0
  2  3  1  0
  3  4  1  0
  4  5  2  0
  4  6  1  0
  6  7  1  0
  7  8  1  0
  8  9  1  0
  9 10  1  0
 10 11  2  0
 10 12  1  0
 12 13  2  0
 13 14  1  0
 14 15  2  0
 15 16  1  0
 16 17  2  0
 16 18  1  0
 18 19  1  0
 19 20  2  0
 19 21  1  0
  9 22  1  0
 22 23  1  0
 23  6  1  0
 17 12  1  0
 21 15  1  0
M  END
>  <distance_score>  (608) 
2.562505

>  <ref_pdb>  (608) 
A1778a

>  <ref_mols>  (608) 
A1778a

>  <alias>  (608) 
None

>  <original SMILES>  (608) 
N#CCC(=O)N1CCC(C(=O)c2ccc3c(c2)CC(=O)N3)CC1

>  <inchikey>  (608) 
PQUXRIKKCAPQTD-UHFFFAOYSA-N

>  <exports>  (608) 
['/opt/xchem-fragalysis-2/maxwin/2A_HIPPO/hippo/A71EV2A_10_recipes/Recipe_1LPUPHX_poses.sdf', '/opt/xchem-fragalysis-2/maxwin/2A_HIPPO/hippo/A71EV2A_10_recipes/Recipe_1LPVPY0_poses.sdf']

>  <original ID>  (608) 
PQUXRIKKCAPQTD-UHFFFAOYSA-N

>  <energy_score>  (608) 
40.695832

>  <tags>  (608) 
[]

>  <HIPPO ID>  (608) 
182229

>  <name>  (608) 
PQUXRIKKCAPQTD-UHFFFAOYSA-N

$$$$
HNUGGDDOKSTSTE-CYBMUJFWSA-N
     RDKit          3D

 24 26  0  0  0  0  0  0  0  0999 V2000
   11.3691   15.2486   20.3742 N   0  0  0  0  0  0  0  0  0  0  0  0
   12.2508   14.8785   19.2853 C   0  0  2  0  0  0  0  0  0  0  0  0
   11.5617   15.1441   17.9864 C   0  0  0  0  0  0  0  0  0  0  0  0
   10.1055   14.2618   18.1636 Cl  0  0  0  0  0  0  0  0  0  0  0  0
   12.7877   13.3415   19.3489 C   0  0  0  0  0  0  0  0  0  0  0  0
   13.3592   12.8372   18.3777 O   0  0  0  0  0  0  0  0  0  0  0  0
   12.7979   12.5797   20.5250 N   0  0  0  0  0  0  0  0  0  0  0  0
   12.2995   13.0728   21.7456 C   0  0  0  0  0  0  0  0  0  0  0  0
   11.9804   12.1914   22.9041 C   0  0  0  0  0  0  0  0  0  0  0  0
   11.4417   10.9728   22.2601 C   0  0  0  0  0  0  0  0  0  0  0  0
   10.7277   10.0329   23.1381 C   0  0  0  0  0  0  0  0  0  0  0  0
   11.0302    8.8484   23.2032 O   0  0  0  0  0  0  0  0  0  0  0  0
    9.5312   10.5946   23.8291 C   0  0  0  0  0  0  0  0  0  0  0  0
    8.7186    9.6879   24.4844 C   0  0  0  0  0  0  0  0  0  0  0  0
    7.6370   10.1450   25.2276 C   0  0  0  0  0  0  0  0  0  0  0  0
    7.4602   11.4856   25.3810 C   0  0  0  0  0  0  0  0  0  0  0  0
    8.2058   12.4030   24.6895 C   0  0  0  0  0  0  0  0  0  0  0  0
    9.1581   11.9570   23.8128 C   0  0  0  0  0  0  0  0  0  0  0  0
    7.7582   13.7818   25.0432 C   0  0  0  0  0  0  0  0  0  0  0  0
    6.6485   13.4823   26.0703 C   0  0  0  0  0  0  0  0  0  0  0  0
    5.9653   14.2629   26.7078 O   0  0  0  0  0  0  0  0  0  0  0  0
    6.5302   12.1102   26.1707 N   0  0  0  0  0  0  0  0  0  0  0  0
   12.4809   10.3402   21.3618 C   0  0  0  0  0  0  0  0  0  0  0  0
   13.4488   11.3144   20.6622 C   0  0  0  0  0  0  0  0  0  0  0  0
  2  1  1  1
  2  3  1  0
  3  4  1  0
  2  5  1  0
  5  6  2  0
  5  7  1  0
  7  8  1  0
  8  9  1  0
  9 10  1  0
 10 11  1  0
 11 12  2  0
 11 13  1  0
 13 14  2  0
 14 15  1  0
 15 16  2  0
 16 17  1  0
 17 18  2  0
 17 19  1  0
 19 20  1  0
 20 21  2  0
 20 22  1  0
 10 23  1  0
 23 24  1  0
 24  7  1  0
 18 13  1  0
 22 16  1  0
M  END
>  <distance_score>  (609) 
1.603287

>  <ref_pdb>  (609) 
A1778a

>  <ref_mols>  (609) 
A1778a

>  <alias>  (609) 
None

>  <original SMILES>  (609) 
N[C@H](CCl)C(=O)N1CCC(C(=O)c2ccc3c(c2)CC(=O)N3)CC1

>  <inchikey>  (609) 
HNUGGDDOKSTSTE-CYBMUJFWSA-N

>  <exports>  (609) 
['/opt/xchem-fragalysis-2/maxwin/2A_HIPPO/hippo/A71EV2A_10_recipes/Recipe_1LPVPY0_poses.sdf']

>  <original ID>  (609) 
HNUGGDDOKSTSTE-CYBMUJFWSA-N

>  <energy_score>  (609) 
-1.560493

>  <tags>  (609) 
[]

>  <HIPPO ID>  (609) 
182385

>  <name>  (609) 
HNUGGDDOKSTSTE-CYBMUJFWSA-N

$$$$
HNUGGDDOKSTSTE-ZDUSSCGKSA-N
     RDKit          3D

 24 26  0  0  0  0  0  0  0  0999 V2000
   12.3964   16.0418   20.0389 N   0  0  0  0  0  0  0  0  0  0  0  0
   11.7283   14.9157   19.3975 C   0  0  1  0  0  0  0  0  0  0  0  0
   11.2588   15.3244   18.0223 C   0  0  0  0  0  0  0  0  0  0  0  0
   11.5582   17.0371   17.5419 Cl  0  0  0  0  0  0  0  0  0  0  0  0
   12.5483   13.5676   19.3578 C   0  0  0  0  0  0  0  0  0  0  0  0
   13.1777   13.1453   18.3916 O   0  0  0  0  0  0  0  0  0  0  0  0
   12.6284   12.7496   20.4746 N   0  0  0  0  0  0  0  0  0  0  0  0
   13.4773   11.6175   20.5552 C   0  0  0  0  0  0  0  0  0  0  0  0
   12.7056   10.4973   21.2224 C   0  0  0  0  0  0  0  0  0  0  0  0
   11.9126   10.8008   22.4952 C   0  0  0  0  0  0  0  0  0  0  0  0
   10.5361   10.2557   22.4581 C   0  0  0  0  0  0  0  0  0  0  0  0
   10.2946    9.2100   21.8642 O   0  0  0  0  0  0  0  0  0  0  0  0
    9.5349   10.7782   23.3995 C   0  0  0  0  0  0  0  0  0  0  0  0
    8.8946    9.8055   24.1626 C   0  0  0  0  0  0  0  0  0  0  0  0
    7.9132   10.1905   25.0543 C   0  0  0  0  0  0  0  0  0  0  0  0
    7.6952   11.5212   25.2584 C   0  0  0  0  0  0  0  0  0  0  0  0
    8.3305   12.4995   24.5257 C   0  0  0  0  0  0  0  0  0  0  0  0
    9.1888   12.1346   23.5200 C   0  0  0  0  0  0  0  0  0  0  0  0
    7.8499   13.8415   24.9722 C   0  0  0  0  0  0  0  0  0  0  0  0
    6.8149   13.4551   26.0467 C   0  0  0  0  0  0  0  0  0  0  0  0
    6.1071   14.1799   26.7223 O   0  0  0  0  0  0  0  0  0  0  0  0
    6.7976   12.0774   26.1348 N   0  0  0  0  0  0  0  0  0  0  0  0
   12.0690   12.2316   22.8915 C   0  0  0  0  0  0  0  0  0  0  0  0
   12.0354   13.1058   21.6778 C   0  0  0  0  0  0  0  0  0  0  0  0
  2  1  1  6
  2  3  1  0
  3  4  1  0
  2  5  1  0
  5  6  2  0
  5  7  1  0
  7  8  1  0
  8  9  1  0
  9 10  1  0
 10 11  1  0
 11 12  2  0
 11 13  1  0
 13 14  2  0
 14 15  1  0
 15 16  2  0
 16 17  1  0
 17 18  2  0
 17 19  1  0
 19 20  1  0
 20 21  2  0
 20 22  1  0
 10 23  1  0
 23 24  1  0
 24  7  1  0
 18 13  1  0
 22 16  1  0
M  END
>  <distance_score>  (610) 
1.398415

>  <ref_pdb>  (610) 
A1778a

>  <ref_mols>  (610) 
A1778a

>  <alias>  (610) 
None

>  <original SMILES>  (610) 
N[C@@H](CCl)C(=O)N1CCC(C(=O)c2ccc3c(c2)CC(=O)N3)CC1

>  <inchikey>  (610) 
HNUGGDDOKSTSTE-ZDUSSCGKSA-N

>  <exports>  (610) 
['/opt/xchem-fragalysis-2/maxwin/2A_HIPPO/hippo/A71EV2A_10_recipes/Recipe_1LPVPY0_poses.sdf']

>  <original ID>  (610) 
HNUGGDDOKSTSTE-ZDUSSCGKSA-N

>  <energy_score>  (610) 
25.314076

>  <tags>  (610) 
[]

>  <HIPPO ID>  (610) 
182386

>  <name>  (610) 
HNUGGDDOKSTSTE-ZDUSSCGKSA-N

$$$$
GXGCYYVZROHTED-LLVKDONJSA-N
     RDKit          3D

 24 26  0  0  0  0  0  0  0  0999 V2000
   12.9543   12.8436   19.7097 C   0  0  0  0  0  0  0  0  0  0  0  0
   13.1691   12.1659   21.0589 C   0  0  2  0  0  0  0  0  0  0  0  0
   13.8524   10.9794   20.6456 C   0  0  0  0  0  0  0  0  0  0  0  0
   14.2983   10.0232   20.1933 N   0  0  0  0  0  0  0  0  0  0  0  0
   11.9927   11.7338   21.9232 C   0  0  0  0  0  0  0  0  0  0  0  0
   11.6231   10.5599   21.9943 O   0  0  0  0  0  0  0  0  0  0  0  0
   11.4648   12.7245   22.7909 N   0  0  0  0  0  0  0  0  0  0  0  0
   11.4727   12.2449   24.1791 C   0  0  0  0  0  0  0  0  0  0  0  0
   10.3502   12.7967   25.0302 C   0  0  0  0  0  0  0  0  0  0  0  0
    8.9824   12.6000   24.4147 C   0  0  0  0  0  0  0  0  0  0  0  0
    8.3153   11.3861   25.0034 C   0  0  0  0  0  0  0  0  0  0  0  0
    8.6954   10.2421   24.7740 O   0  0  0  0  0  0  0  0  0  0  0  0
    7.1817   11.6142   25.9204 C   0  0  0  0  0  0  0  0  0  0  0  0
    6.3127   10.5423   26.2008 C   0  0  0  0  0  0  0  0  0  0  0  0
    5.3256   10.6384   27.1773 C   0  0  0  0  0  0  0  0  0  0  0  0
    5.2200   11.8401   27.8229 C   0  0  0  0  0  0  0  0  0  0  0  0
    6.0575   12.9119   27.5418 C   0  0  0  0  0  0  0  0  0  0  0  0
    7.0502   12.8252   26.5989 C   0  0  0  0  0  0  0  0  0  0  0  0
    5.7178   14.0556   28.4264 C   0  0  0  0  0  0  0  0  0  0  0  0
    4.5677   13.4982   29.2466 C   0  0  0  0  0  0  0  0  0  0  0  0
    3.9692   14.1024   30.1168 O   0  0  0  0  0  0  0  0  0  0  0  0
    4.3440   12.1940   28.8306 N   0  0  0  0  0  0  0  0  0  0  0  0
    9.0390   12.4185   22.9284 C   0  0  0  0  0  0  0  0  0  0  0  0
   10.1517   13.2466   22.3512 C   0  0  0  0  0  0  0  0  0  0  0  0
  2  1  1  6
  2  3  1  0
  3  4  3  0
  2  5  1  0
  5  6  2  0
  5  7  1  0
  7  8  1  0
  8  9  1  0
  9 10  1  0
 10 11  1  0
 11 12  2  0
 11 13  1  0
 13 14  2  0
 14 15  1  0
 15 16  2  0
 16 17  1  0
 17 18  2  0
 17 19  1  0
 19 20  1  0
 20 21  2  0
 20 22  1  0
 10 23  1  0
 23 24  1  0
 24  7  1  0
 18 13  1  0
 22 16  1  0
M  END
>  <distance_score>  (611) 
4.759729

>  <ref_pdb>  (611) 
A1778a

>  <ref_mols>  (611) 
A1778a

>  <alias>  (611) 
None

>  <original SMILES>  (611) 
C[C@H](C#N)C(=O)N1CCC(C(=O)c2ccc3c(c2)CC(=O)N3)CC1

>  <inchikey>  (611) 
GXGCYYVZROHTED-LLVKDONJSA-N

>  <exports>  (611) 
['/opt/xchem-fragalysis-2/maxwin/2A_HIPPO/hippo/A71EV2A_10_recipes/Recipe_1LPVPY0_poses.sdf']

>  <original ID>  (611) 
GXGCYYVZROHTED-LLVKDONJSA-N

>  <energy_score>  (611) 
-36.620718

>  <tags>  (611) 
[]

>  <HIPPO ID>  (611) 
182421

>  <name>  (611) 
GXGCYYVZROHTED-LLVKDONJSA-N

$$$$
VKQJXGLAYUFNNG-OCAPTIKFSA-N
     RDKit          3D

 19 21  0  0  0  0  0  0  0  0999 V2000
    4.9363   11.6755   27.2227 O   0  0  0  0  0  0  0  0  0  0  0  0
    5.6461   10.7455   26.8494 C   0  0  0  0  0  0  0  0  0  0  0  0
    5.4850    9.4813   27.3806 N   0  0  0  0  0  0  0  0  0  0  0  0
    4.5282    9.2461   28.4743 C   0  0  2  0  0  0  0  0  0  0  0  0
    4.6060    7.8505   29.1277 C   0  0  0  0  0  0  0  0  0  0  0  0
    3.0569    7.8696   29.1839 C   0  0  2  0  0  0  0  0  0  0  0  0
    2.3193    6.5980   28.8776 C   0  0  0  0  0  0  0  0  0  0  0  0
    2.3919    5.7647   29.9332 F   0  0  0  0  0  0  0  0  0  0  0  0
    1.0204    6.8674   28.6216 F   0  0  0  0  0  0  0  0  0  0  0  0
    2.8379    5.9861   27.7929 F   0  0  0  0  0  0  0  0  0  0  0  0
    3.1112    8.8579   28.0098 C   0  0  0  0  0  0  0  0  0  0  0  0
    6.7135   10.9296   25.8947 C   0  0  0  0  0  0  0  0  0  0  0  0
    7.1766   12.1712   25.4398 C   0  0  0  0  0  0  0  0  0  0  0  0
    8.2180   11.8837   24.5810 C   0  0  0  0  0  0  0  0  0  0  0  0
    9.0954   12.6668   23.8443 C   0  0  0  0  0  0  0  0  0  0  0  0
    9.9475   11.8158   23.1534 C   0  0  0  0  0  0  0  0  0  0  0  0
    9.5755   10.1242   23.4042 S   0  0  0  0  0  0  0  0  0  0  0  0
    8.3785   10.5631   24.4664 C   0  0  0  0  0  0  0  0  0  0  0  0
    7.4672    9.9487   25.2551 N   0  0  0  0  0  0  0  0  0  0  0  0
  1  2  2  0
  2  3  1  0
  4  3  1  6
  4  5  1  0
  5  6  1  0
  6  7  1  6
  7  8  1  0
  7  9  1  0
  7 10  1  0
  6 11  1  0
  2 12  1  0
 12 13  2  0
 13 14  1  0
 14 15  1  0
 15 16  2  0
 16 17  1  0
 17 18  1  0
 18 19  1  0
 11  4  1  0
 19 12  1  0
 18 14  2  0
M  END
>  <distance_score>  (612) 
0.691213

>  <ref_pdb>  (612) 
A0310a

>  <ref_mols>  (612) 
A0556a,A0566a

>  <alias>  (612) 
None

>  <original SMILES>  (612) 
O=C(N[C@H]1C[C@@H](C(F)(F)F)C1)c1cc2ccsc2[nH]1

>  <inchikey>  (612) 
VKQJXGLAYUFNNG-OCAPTIKFSA-N

>  <exports>  (612) 
['/opt/xchem-fragalysis-2/maxwin/2A_HIPPO/hippo/A71EV2A_10_recipes/Recipe_1LPUPHX_poses.sdf', '/opt/xchem-fragalysis-2/maxwin/2A_HIPPO/hippo/A71EV2A_10_recipes/Recipe_1LPVPY0_poses.sdf']

>  <original ID>  (612) 
VKQJXGLAYUFNNG-OCAPTIKFSA-N

>  <energy_score>  (612) 
-38.215006

>  <tags>  (612) 
['Syndirella scaffold']

>  <HIPPO ID>  (612) 
182468

>  <name>  (612) 
VKQJXGLAYUFNNG-OCAPTIKFSA-N

$$$$
PMJYWQLUNYNKJC-KNVOCYPGSA-N
     RDKit          3D

 20 22  0  0  0  0  0  0  0  0999 V2000
    4.7966   11.4089   27.3571 O   0  0  0  0  0  0  0  0  0  0  0  0
    5.5799   10.5922   26.8887 C   0  0  0  0  0  0  0  0  0  0  0  0
    5.5511    9.2666   27.2340 N   0  0  0  0  0  0  0  0  0  0  0  0
    4.6185    8.5356   28.0934 C   0  0  1  0  0  0  0  0  0  0  0  0
    4.5382    8.8964   29.5818 C   0  0  0  0  0  0  0  0  0  0  0  0
    3.0548    8.4220   29.4870 C   0  0  1  0  0  0  0  0  0  0  0  0
    2.0221    9.1680   30.2671 C   0  0  0  0  0  0  0  0  0  0  0  0
    2.0088    8.7244   31.5394 F   0  0  0  0  0  0  0  0  0  0  0  0
    2.2774   10.4917   30.2716 F   0  0  0  0  0  0  0  0  0  0  0  0
    0.8006    8.9710   29.7268 F   0  0  0  0  0  0  0  0  0  0  0  0
    3.1208    8.8354   28.0049 C   0  0  0  0  0  0  0  0  0  0  0  0
    6.6302   10.9670   25.9523 C   0  0  0  0  0  0  0  0  0  0  0  0
    6.9707   12.2827   25.6138 C   0  0  0  0  0  0  0  0  0  0  0  0
    8.0409   12.1776   24.7474 C   0  0  0  0  0  0  0  0  0  0  0  0
    8.8717   13.1104   24.1424 C   0  0  0  0  0  0  0  0  0  0  0  0
    9.8476   12.4147   23.4514 C   0  0  0  0  0  0  0  0  0  0  0  0
   11.3466   13.3124   22.6762 Br  0  0  0  0  0  0  0  0  0  0  0  0
    9.6006   10.7024   23.4430 S   0  0  0  0  0  0  0  0  0  0  0  0
    8.3322   10.8975   24.5034 C   0  0  0  0  0  0  0  0  0  0  0  0
    7.4799   10.1261   25.2203 N   0  0  0  0  0  0  0  0  0  0  0  0
  1  2  2  0
  2  3  1  0
  4  3  1  6
  4  5  1  0
  5  6  1  0
  6  7  1  1
  7  8  1  0
  7  9  1  0
  7 10  1  0
  6 11  1  0
  2 12  1  0
 12 13  2  0
 13 14  1  0
 14 15  1  0
 15 16  2  0
 16 17  1  0
 16 18  1  0
 18 19  1  0
 19 20  1  0
 11  4  1  0
 20 12  1  0
 19 14  2  0
M  END
>  <distance_score>  (613) 
0.970787

>  <ref_pdb>  (613) 
A0310a

>  <ref_mols>  (613) 
A0556a,A0566a

>  <alias>  (613) 
None

>  <original SMILES>  (613) 
O=C(N[C@H]1C[C@@H](C(F)(F)F)C1)c1cc2cc(Br)sc2[nH]1

>  <inchikey>  (613) 
PMJYWQLUNYNKJC-KNVOCYPGSA-N

>  <exports>  (613) 
['/opt/xchem-fragalysis-2/maxwin/2A_HIPPO/hippo/A71EV2A_10_recipes/Recipe_1LPVPY0_poses.sdf']

>  <original ID>  (613) 
PMJYWQLUNYNKJC-KNVOCYPGSA-N

>  <energy_score>  (613) 
-46.020829

>  <tags>  (613) 
[]

>  <HIPPO ID>  (613) 
182483

>  <name>  (613) 
PMJYWQLUNYNKJC-KNVOCYPGSA-N

$$$$
FZDCCAOQLMPOFS-LYWQIFSTSA-N
     RDKit          3D

 20 22  0  0  0  0  0  0  0  0999 V2000
    3.9069    7.1593   27.1086 C   0  0  0  0  0  0  0  0  0  0  0  0
    4.1591    8.5041   27.8077 C   0  0  2  0  0  0  0  0  0  0  0  0
    5.2722    9.2018   27.1217 N   0  0  0  0  0  0  0  0  0  0  0  0
    5.4678   10.5355   26.8361 C   0  0  0  0  0  0  0  0  0  0  0  0
    4.7462   11.4198   27.2786 O   0  0  0  0  0  0  0  0  0  0  0  0
    6.6055   10.8298   25.9692 C   0  0  0  0  0  0  0  0  0  0  0  0
    7.0683   12.1044   25.6051 C   0  0  0  0  0  0  0  0  0  0  0  0
    8.1173   11.8890   24.7239 C   0  0  0  0  0  0  0  0  0  0  0  0
    8.9715   12.7191   24.0045 C   0  0  0  0  0  0  0  0  0  0  0  0
    9.8276   11.9199   23.2532 C   0  0  0  0  0  0  0  0  0  0  0  0
    9.5038   10.2122   23.4504 S   0  0  0  0  0  0  0  0  0  0  0  0
    8.3068   10.5814   24.5393 C   0  0  0  0  0  0  0  0  0  0  0  0
    7.4060    9.9087   25.2889 N   0  0  0  0  0  0  0  0  0  0  0  0
    4.3385    8.4233   29.3505 C   0  0  0  0  0  0  0  0  0  0  0  0
    2.7945    8.4683   29.4355 C   0  0  1  0  0  0  0  0  0  0  0  0
    2.0987    9.2560   30.4898 C   0  0  0  0  0  0  0  0  0  0  0  0
    2.6390   10.4832   30.6207 F   0  0  0  0  0  0  0  0  0  0  0  0
    2.1854    8.6136   31.6706 F   0  0  0  0  0  0  0  0  0  0  0  0
    0.7960    9.3883   30.1613 F   0  0  0  0  0  0  0  0  0  0  0  0
    2.8221    9.2083   28.0865 C   0  0  0  0  0  0  0  0  0  0  0  0
  2  1  1  6
  2  3  1  0
  3  4  1  0
  4  5  2  0
  4  6  1  0
  6  7  2  0
  7  8  1  0
  8  9  1  0
  9 10  2  0
 10 11  1  0
 11 12  1  0
 12 13  1  0
  2 14  1  0
 14 15  1  0
 15 16  1  1
 16 17  1  0
 16 18  1  0
 16 19  1  0
 15 20  1  0
 20  2  1  0
 13  6  1  0
 12  8  2  0
M  END
>  <distance_score>  (614) 
0.851174

>  <ref_pdb>  (614) 
A0310a

>  <ref_mols>  (614) 
A0556a,A0566a

>  <alias>  (614) 
None

>  <original SMILES>  (614) 
C[C@]1(NC(=O)c2cc3ccsc3[nH]2)C[C@@H](C(F)(F)F)C1

>  <inchikey>  (614) 
FZDCCAOQLMPOFS-LYWQIFSTSA-N

>  <exports>  (614) 
['/opt/xchem-fragalysis-2/maxwin/2A_HIPPO/hippo/A71EV2A_10_recipes/Recipe_1LPVPY0_poses.sdf']

>  <original ID>  (614) 
FZDCCAOQLMPOFS-LYWQIFSTSA-N

>  <energy_score>  (614) 
-42.940497

>  <tags>  (614) 
[]

>  <HIPPO ID>  (614) 
182484

>  <name>  (614) 
FZDCCAOQLMPOFS-LYWQIFSTSA-N

$$$$
VYNZFYDRLFTJNW-OGXFKERWSA-N
     RDKit          3D

 21 23  0  0  0  0  0  0  0  0999 V2000
    4.6998   10.3228   29.5940 C   0  0  0  0  0  0  0  0  0  0  0  0
    4.5770    9.2522   28.5102 C   0  0  1  0  0  0  0  0  0  0  0  0
    5.5288    9.5050   27.3910 N   0  0  0  0  0  0  0  0  0  0  0  0
    5.5413   10.7132   26.7225 C   0  0  0  0  0  0  0  0  0  0  0  0
    4.6803   11.5613   26.9424 O   0  0  0  0  0  0  0  0  0  0  0  0
    6.6413   10.9856   25.8286 C   0  0  0  0  0  0  0  0  0  0  0  0
    6.9931   12.2855   25.4485 C   0  0  0  0  0  0  0  0  0  0  0  0
    8.0884   12.1439   24.6331 C   0  0  0  0  0  0  0  0  0  0  0  0
    8.9196   13.0671   24.0232 C   0  0  0  0  0  0  0  0  0  0  0  0
    9.9215   12.3593   23.3908 C   0  0  0  0  0  0  0  0  0  0  0  0
   11.4327   13.2743   22.6612 Br  0  0  0  0  0  0  0  0  0  0  0  0
    9.6790   10.6435   23.4188 S   0  0  0  0  0  0  0  0  0  0  0  0
    8.3884   10.8542   24.4530 C   0  0  0  0  0  0  0  0  0  0  0  0
    7.5164   10.1085   25.1833 N   0  0  0  0  0  0  0  0  0  0  0  0
    4.6405    7.8087   29.0840 C   0  0  0  0  0  0  0  0  0  0  0  0
    3.0901    7.8320   29.1496 C   0  0  2  0  0  0  0  0  0  0  0  0
    2.3414    6.5808   28.7912 C   0  0  0  0  0  0  0  0  0  0  0  0
    2.8611    6.0014   27.6899 F   0  0  0  0  0  0  0  0  0  0  0  0
    1.0468    6.8730   28.5379 F   0  0  0  0  0  0  0  0  0  0  0  0
    2.3969    5.7124   29.8195 F   0  0  0  0  0  0  0  0  0  0  0  0
    3.1432    8.8923   28.0400 C   0  0  0  0  0  0  0  0  0  0  0  0
  2  1  1  1
  2  3  1  0
  3  4  1  0
  4  5  2  0
  4  6  1  0
  6  7  2  0
  7  8  1  0
  8  9  1  0
  9 10  2  0
 10 11  1  0
 10 12  1  0
 12 13  1  0
 13 14  1  0
  2 15  1  0
 15 16  1  0
 16 17  1  6
 17 18  1  0
 17 19  1  0
 17 20  1  0
 16 21  1  0
 21  2  1  0
 14  6  1  0
 13  8  2  0
M  END
>  <distance_score>  (615) 
0.847799

>  <ref_pdb>  (615) 
A0310a

>  <ref_mols>  (615) 
A0556a,A0566a

>  <alias>  (615) 
None

>  <original SMILES>  (615) 
C[C@]1(NC(=O)c2cc3cc(Br)sc3[nH]2)C[C@@H](C(F)(F)F)C1

>  <inchikey>  (615) 
VYNZFYDRLFTJNW-OGXFKERWSA-N

>  <exports>  (615) 
['/opt/xchem-fragalysis-2/maxwin/2A_HIPPO/hippo/A71EV2A_10_recipes/Recipe_1LPVPY0_poses.sdf']

>  <original ID>  (615) 
VYNZFYDRLFTJNW-OGXFKERWSA-N

>  <energy_score>  (615) 
-33.901038

>  <tags>  (615) 
[]

>  <HIPPO ID>  (615) 
182771

>  <name>  (615) 
VYNZFYDRLFTJNW-OGXFKERWSA-N

$$$$
QIPNQJPGCBSTHK-UONOGXRCSA-N
     RDKit          3D

 22 24  0  0  0  0  0  0  0  0999 V2000
    5.5174   13.5427   25.1832 C   0  0  0  0  0  0  0  0  0  0  0  0
    6.6154   12.4996   25.3783 C   0  0  0  0  0  0  0  0  0  0  0  0
    6.1878   11.1171   24.9917 C   0  0  0  0  0  0  0  0  0  0  0  0
    7.9715   12.8986   24.7745 C   0  0  1  0  0  0  0  0  0  0  0  0
    8.0914   13.1934   23.2971 C   0  0  0  0  0  0  0  0  0  0  0  0
    8.4213   14.0385   25.7011 C   0  0  0  0  0  0  0  0  0  0  0  0
    7.7516   13.6737   27.0522 C   0  0  0  0  0  0  0  0  0  0  0  0
    7.1378   12.2918   26.7689 C   0  0  1  0  0  0  0  0  0  0  0  0
    5.9935   11.7080   27.7016 C   0  0  0  0  0  0  0  0  0  0  0  0
    5.1404   12.4368   28.1942 O   0  0  0  0  0  0  0  0  0  0  0  0
    5.9689   10.3166   27.7607 N   0  0  0  0  0  0  0  0  0  0  0  0
    4.9044    9.5310   28.1867 C   0  0  0  0  0  0  0  0  0  0  0  0
    3.7050    9.7046   28.8488 C   0  0  0  0  0  0  0  0  0  0  0  0
    3.1091    8.4012   28.9289 C   0  0  0  0  0  0  0  0  0  0  0  0
    1.8434    7.9264   29.4937 C   0  0  0  0  0  0  0  0  0  0  0  0
    1.8017    6.5646   29.6743 N   0  0  0  0  0  0  0  0  0  0  0  0
    0.8838    8.6420   29.7477 O   0  0  0  0  0  0  0  0  0  0  0  0
    3.8978    7.4915   28.3463 N   0  0  0  0  0  0  0  0  0  0  0  0
    4.9136    8.2007   27.8822 N   0  0  0  0  0  0  0  0  0  0  0  0
    8.1677   11.3289   26.4174 O   0  0  0  0  0  0  0  0  0  0  0  0
    8.6714   11.6260   25.1555 C   0  0  0  0  0  0  0  0  0  0  0  0
    9.3686   10.8907   24.4860 O   0  0  0  0  0  0  0  0  0  0  0  0
  1  2  1  0
  2  3  1  0
  2  4  1  0
  4  5  1  6
  4  6  1  0
  6  7  1  0
  7  8  1  0
  8  9  1  1
  9 10  2  0
  9 11  1  0
 11 12  1  0
 12 13  2  0
 13 14  1  0
 14 15  1  0
 15 16  1  0
 15 17  2  0
 14 18  2  0
 18 19  1  0
  8 20  1  0
 20 21  1  0
 21 22  2  0
  8  2  1  0
 19 12  1  0
 21  4  1  0
M  END
>  <distance_score>  (616) 
2.301129

>  <ref_pdb>  (616) 
A0310a

>  <ref_mols>  (616) 
A0528a,A0556a

>  <alias>  (616) 
None

>  <original SMILES>  (616) 
CC1(C)[C@@]2(C)CC[C@]1(C(=O)Nc1cc(C(N)=O)n[nH]1)OC2=O

>  <inchikey>  (616) 
QIPNQJPGCBSTHK-UONOGXRCSA-N

>  <exports>  (616) 
['/opt/xchem-fragalysis-2/maxwin/2A_HIPPO/hippo/A71EV2A_10_recipes/Recipe_1LPVPY0_poses.sdf']

>  <original ID>  (616) 
QIPNQJPGCBSTHK-UONOGXRCSA-N

>  <energy_score>  (616) 
-24.210146

>  <tags>  (616) 
[]

>  <HIPPO ID>  (616) 
192021

>  <name>  (616) 
QIPNQJPGCBSTHK-UONOGXRCSA-N

$$$$
QIPNQJPGCBSTHK-KGLIPLIRSA-N
     RDKit          3D

 22 24  0  0  0  0  0  0  0  0999 V2000
    6.8138   14.5590   26.1349 C   0  0  0  0  0  0  0  0  0  0  0  0
    7.5262   13.1883   26.2976 C   0  0  0  0  0  0  0  0  0  0  0  0
    7.7436   13.1285   27.7996 C   0  0  0  0  0  0  0  0  0  0  0  0
    6.7512   11.9828   25.8246 C   0  0  1  0  0  0  0  0  0  0  0  0
    5.5470   11.3971   26.5942 C   0  0  0  0  0  0  0  0  0  0  0  0
    4.4022   11.7727   26.3611 O   0  0  0  0  0  0  0  0  0  0  0  0
    5.8258   10.4618   27.6077 N   0  0  0  0  0  0  0  0  0  0  0  0
    4.8975    9.4758   27.9140 C   0  0  0  0  0  0  0  0  0  0  0  0
    4.4968    8.8429   29.0697 C   0  0  0  0  0  0  0  0  0  0  0  0
    3.4273    7.9724   28.6694 C   0  0  0  0  0  0  0  0  0  0  0  0
    2.5863    7.1006   29.4942 C   0  0  0  0  0  0  0  0  0  0  0  0
    1.4317    6.6879   28.8804 N   0  0  0  0  0  0  0  0  0  0  0  0
    2.8840    6.7322   30.6234 O   0  0  0  0  0  0  0  0  0  0  0  0
    3.2375    8.0228   27.3361 N   0  0  0  0  0  0  0  0  0  0  0  0
    4.2726    8.7716   26.9281 N   0  0  0  0  0  0  0  0  0  0  0  0
    6.5474   12.4452   24.3730 C   0  0  0  0  0  0  0  0  0  0  0  0
    7.8308   13.1206   23.8931 C   0  0  0  0  0  0  0  0  0  0  0  0
    8.6249   12.9160   25.1665 C   0  0  1  0  0  0  0  0  0  0  0  0
    9.9264   13.6740   25.1539 C   0  0  0  0  0  0  0  0  0  0  0  0
    8.7589   11.3829   25.0832 C   0  0  0  0  0  0  0  0  0  0  0  0
    9.4982   10.7013   24.4023 O   0  0  0  0  0  0  0  0  0  0  0  0
    7.7007   10.8919   25.7814 O   0  0  0  0  0  0  0  0  0  0  0  0
  1  2  1  0
  2  3  1  0
  2  4  1  0
  4  5  1  1
  5  6  2  0
  5  7  1  0
  7  8  1  0
  8  9  2  0
  9 10  1  0
 10 11  1  0
 11 12  1  0
 11 13  2  0
 10 14  2  0
 14 15  1  0
  4 16  1  0
 16 17  1  0
 17 18  1  0
 18 19  1  1
 18 20  1  0
 20 21  2  0
 20 22  1  0
 18  2  1  0
 22  4  1  0
 15  8  1  0
M  END
>  <distance_score>  (617) 
1.935868

>  <ref_pdb>  (617) 
A0310a

>  <ref_mols>  (617) 
A0528a,A0556a

>  <alias>  (617) 
None

>  <original SMILES>  (617) 
CC1(C)[C@@]2(C(=O)Nc3cc(C(N)=O)n[nH]3)CC[C@]1(C)C(=O)O2

>  <inchikey>  (617) 
QIPNQJPGCBSTHK-KGLIPLIRSA-N

>  <exports>  (617) 
['/opt/xchem-fragalysis-2/maxwin/2A_HIPPO/hippo/A71EV2A_10_recipes/Recipe_1LPVPY0_poses.sdf']

>  <original ID>  (617) 
QIPNQJPGCBSTHK-KGLIPLIRSA-N

>  <energy_score>  (617) 
-23.166777

>  <tags>  (617) 
[]

>  <HIPPO ID>  (617) 
192022

>  <name>  (617) 
QIPNQJPGCBSTHK-KGLIPLIRSA-N

$$$$
LOFPJTBPHYUPTQ-UHFFFAOYSA-N
     RDKit          3D

 21 23  0  0  0  0  0  0  0  0999 V2000
   10.4210   10.7464   22.7847 O   0  0  0  0  0  0  0  0  0  0  0  0
   10.2894   11.9128   23.1029 C   0  0  0  0  0  0  0  0  0  0  0  0
   11.2158   13.0601   22.7818 C   0  0  0  0  0  0  0  0  0  0  0  0
   10.8131   14.1122   23.7907 C   0  0  0  0  0  0  0  0  0  0  0  0
    9.3381   13.8647   23.9477 C   0  0  0  0  0  0  0  0  0  0  0  0
    9.2384   12.4384   23.8295 N   0  0  0  0  0  0  0  0  0  0  0  0
    8.2344   11.7006   24.4495 C   0  0  0  0  0  0  0  0  0  0  0  0
    7.1344   12.3868   24.9313 C   0  0  0  0  0  0  0  0  0  0  0  0
    6.1947   11.7237   25.6799 C   0  0  0  0  0  0  0  0  0  0  0  0
    6.3754   10.3861   25.9574 C   0  0  0  0  0  0  0  0  0  0  0  0
    5.4893    9.6852   26.7398 N   0  0  0  0  0  0  0  0  0  0  0  0
    4.8337   10.3199   27.8560 C   0  0  0  0  0  0  0  0  0  0  0  0
    5.7896   10.7612   28.9382 C   0  0  0  0  0  0  0  0  0  0  0  0
    6.1782    9.8556   29.9332 C   0  0  0  0  0  0  0  0  0  0  0  0
    7.0706   10.2368   30.9374 C   0  0  0  0  0  0  0  0  0  0  0  0
    7.5887   11.5301   30.9546 C   0  0  0  0  0  0  0  0  0  0  0  0
    7.2048   12.4329   29.9724 C   0  0  0  0  0  0  0  0  0  0  0  0
    7.7158   13.6712   29.9763 F   0  0  0  0  0  0  0  0  0  0  0  0
    6.3074   12.0658   28.9764 C   0  0  0  0  0  0  0  0  0  0  0  0
    7.3963    9.6853   25.4406 N   0  0  0  0  0  0  0  0  0  0  0  0
    8.2936   10.3335   24.6720 C   0  0  0  0  0  0  0  0  0  0  0  0
  1  2  2  0
  2  3  1  0
  3  4  1  0
  4  5  1  0
  5  6  1  0
  6  7  1  0
  7  8  2  0
  8  9  1  0
  9 10  2  0
 10 11  1  0
 11 12  1  0
 12 13  1  0
 13 14  2  0
 14 15  1  0
 15 16  2  0
 16 17  1  0
 17 18  1  0
 17 19  2  0
 10 20  1  0
 20 21  2  0
  6  2  1  0
 21  7  1  0
 19 13  1  0
M  END
>  <distance_score>  (618) 
1.650132

>  <ref_pdb>  (618) 
A0310a

>  <ref_mols>  (618) 
A0528a,A0365a

>  <alias>  (618) 
None

>  <original SMILES>  (618) 
O=C1CCCN1c1ccc(NCc2cccc(F)c2)nc1

>  <inchikey>  (618) 
LOFPJTBPHYUPTQ-UHFFFAOYSA-N

>  <exports>  (618) 
['/opt/xchem-fragalysis-2/maxwin/2A_HIPPO/hippo/A71EV2A_10_recipes/Recipe_1LPUPHX_poses.sdf', '/opt/xchem-fragalysis-2/maxwin/2A_HIPPO/hippo/A71EV2A_10_recipes/Recipe_1LPVPY0_poses.sdf']

>  <original ID>  (618) 
LOFPJTBPHYUPTQ-UHFFFAOYSA-N

>  <energy_score>  (618) 
-28.753038

>  <tags>  (618) 
['Syndirella scaffold']

>  <HIPPO ID>  (618) 
196616

>  <name>  (618) 
LOFPJTBPHYUPTQ-UHFFFAOYSA-N

$$$$
JKKHIGAQTYEJMW-UHFFFAOYSA-N
     RDKit          3D

 22 24  0  0  0  0  0  0  0  0999 V2000
   10.6193   10.6614   23.0639 O   0  0  0  0  0  0  0  0  0  0  0  0
   10.3473   11.8452   23.1110 C   0  0  0  0  0  0  0  0  0  0  0  0
   11.2852   12.9962   22.8669 C   0  0  0  0  0  0  0  0  0  0  0  0
   10.3390   14.1460   22.6184 C   0  0  0  0  0  0  0  0  0  0  0  0
    9.1617   13.8156   23.4941 C   0  0  0  0  0  0  0  0  0  0  0  0
    9.1488   12.3771   23.5396 N   0  0  0  0  0  0  0  0  0  0  0  0
    8.1986   11.6671   24.2780 C   0  0  0  0  0  0  0  0  0  0  0  0
    7.0842   12.3575   24.7023 C   0  0  0  0  0  0  0  0  0  0  0  0
    6.1652   11.7312   25.5038 C   0  0  0  0  0  0  0  0  0  0  0  0
    6.3863   10.4461   25.9359 C   0  0  0  0  0  0  0  0  0  0  0  0
    5.4986    9.8282   26.7935 N   0  0  0  0  0  0  0  0  0  0  0  0
    4.9170   10.6253   27.8599 C   0  0  0  0  0  0  0  0  0  0  0  0
    5.9078   10.9891   28.9427 C   0  0  0  0  0  0  0  0  0  0  0  0
    6.2579    9.9463   29.8276 C   0  0  0  0  0  0  0  0  0  0  0  0
    7.1598   10.1412   30.8728 C   0  0  0  0  0  0  0  0  0  0  0  0
    7.7477   11.3857   31.0480 C   0  0  0  0  0  0  0  0  0  0  0  0
    7.4180   12.4274   30.1895 C   0  0  0  0  0  0  0  0  0  0  0  0
    8.0222   13.6104   30.3828 F   0  0  0  0  0  0  0  0  0  0  0  0
    6.4926   12.2563   29.1500 C   0  0  0  0  0  0  0  0  0  0  0  0
    6.0484   14.0110   28.0703 I   0  0  0  0  0  0  0  0  0  0  0  0
    7.4275    9.7311   25.4952 N   0  0  0  0  0  0  0  0  0  0  0  0
    8.2995   10.3315   24.6518 C   0  0  0  0  0  0  0  0  0  0  0  0
  1  2  2  0
  2  3  1  0
  3  4  1  0
  4  5  1  0
  5  6  1  0
  6  7  1  0
  7  8  2  0
  8  9  1  0
  9 10  2  0
 10 11  1  0
 11 12  1  0
 12 13  1  0
 13 14  2  0
 14 15  1  0
 15 16  2  0
 16 17  1  0
 17 18  1  0
 17 19  2  0
 19 20  1  0
 10 21  1  0
 21 22  2  0
  6  2  1  0
 22  7  1  0
 19 13  1  0
M  END
>  <distance_score>  (619) 
1.68826

>  <ref_pdb>  (619) 
A0310a

>  <ref_mols>  (619) 
A0528a,A0365a

>  <alias>  (619) 
None

>  <original SMILES>  (619) 
O=C1CCCN1c1ccc(NCc2cccc(F)c2I)nc1

>  <inchikey>  (619) 
JKKHIGAQTYEJMW-UHFFFAOYSA-N

>  <exports>  (619) 
['/opt/xchem-fragalysis-2/maxwin/2A_HIPPO/hippo/A71EV2A_10_recipes/Recipe_1LPVPY0_poses.sdf']

>  <original ID>  (619) 
JKKHIGAQTYEJMW-UHFFFAOYSA-N

>  <energy_score>  (619) 
-52.420043

>  <tags>  (619) 
[]

>  <HIPPO ID>  (619) 
196642

>  <name>  (619) 
JKKHIGAQTYEJMW-UHFFFAOYSA-N

$$$$
