A71EV2A-x3371_A_201_1_A71EV2A-x0526+A+147+1__LIG
     RDKit          3D

 21 23  0  0  0  0  0  0  0  0999 V2000
    8.8880   14.5550   24.0800 O   0  0  0  0  0  0  0  0  0  0  0  0
    9.2830   13.5810   23.4470 C   0  0  0  0  0  0  0  0  0  0  0  0
    8.8640   12.1570   23.8430 C   0  0  0  0  0  0  0  0  0  0  0  0
    7.8560   11.7130   24.7830 C   0  0  0  0  0  0  0  0  0  0  0  0
    6.9640   12.3120   25.6650 C   0  0  0  0  0  0  0  0  0  0  0  0
    6.0370   11.5270   26.3420 C   0  0  0  0  0  0  0  0  0  0  0  0
    6.0000   10.1510   26.1570 C   0  0  0  0  0  0  0  0  0  0  0  0
    6.8980    9.5350   25.3000 C   0  0  0  0  0  0  0  0  0  0  0  0
    7.8160   10.3250   24.6210 C   0  0  0  0  0  0  0  0  0  0  0  0
    8.7360   10.0080   23.6730 N   0  0  0  0  0  0  0  0  0  0  0  0
    9.0250    8.6950   23.1160 C   0  0  0  0  0  0  0  0  0  0  0  0
    9.3930   11.1200   23.1970 N   0  0  0  0  0  0  0  0  0  0  0  0
   10.0510   13.6810   22.3590 N   0  0  0  0  0  0  0  0  0  0  0  0
   10.4380   14.9570   21.7660 C   0  0  0  0  0  0  0  0  0  0  0  0
   11.9410   15.1340   21.7330 C   0  0  0  0  0  0  0  0  0  0  0  0
   12.3880   16.3320   20.9500 C   0  0  0  0  0  0  0  0  0  0  0  0
   12.2400   16.3870   19.5800 N   0  0  0  0  0  0  0  0  0  0  0  0
   12.7060   17.5620   19.2280 C   0  0  0  0  0  0  0  0  0  0  0  0
   12.9600   17.4890   21.3830 C   0  0  0  0  0  0  0  0  0  0  0  0
   13.1540   18.2630   20.2760 N   0  0  0  0  0  0  0  0  0  0  0  0
   13.7240   19.6070   20.2450 C   0  0  0  0  0  0  0  0  0  0  0  0
 21 20  1  0
 20 18  1  0
 18 17  2  0
 17 16  1  0
 16 15  1  0
 15 14  1  0
 14 13  1  0
 13  2  1  0
  2  1  2  0
  3  2  1  0
  3 12  2  0
 12 10  1  0
 11 10  1  0
 10  9  1  0
  9  8  1  0
  8  7  2  0
  7  6  1  0
  6  5  2  0
  5  4  1  0
  4  3  1  0
  9  4  2  0
 19 16  2  0
 20 19  1  0
M  END
$$$$
