A71EV2A-x3510_A_201_v1
     RDKit          3D

 19 20  0  0  0  0  0  0  0  0999 V2000
    9.9080   16.9840   19.5360 O   0  0  0  0  0  0  0  0  0  0  0  0
   10.2140   15.8080   19.7370 C   0  0  0  0  0  0  0  0  0  0  0  0
   10.4920   14.9620   18.7600 N   0  0  0  0  0  0  0  0  0  0  0  0
   10.2710   15.2420   21.1450 C   0  0  1  0  0  0  0  0  0  0  0  0
   11.2670   16.0130   22.0190 C   0  0  0  0  0  0  0  0  0  0  0  0
   11.3160   15.4550   23.4440 C   0  0  0  0  0  0  0  0  0  0  0  0
    9.9220   15.4040   24.0640 C   0  0  0  0  0  0  0  0  0  0  0  0
    8.9080   15.3550   21.8300 C   0  0  0  0  0  0  0  0  0  0  0  0
    8.9690   14.7390   23.1600 N   0  0  0  0  0  0  0  0  0  0  0  0
    8.1610   13.6790   23.4500 C   0  0  0  0  0  0  0  0  0  0  0  0
    7.3510   13.2490   22.6390 O   0  0  0  0  0  0  0  0  0  0  0  0
    8.3100   13.1310   24.6890 N   0  0  0  0  0  0  0  0  0  0  0  0
    7.5730   12.0210   25.1850 C   0  0  0  0  0  0  0  0  0  0  0  0
    7.8760   10.7230   24.7250 C   0  0  0  0  0  0  0  0  0  0  0  0
    9.0750   10.4440   23.8550 C   0  0  0  0  0  0  0  0  0  0  0  0
    6.5440   12.2280   26.1060 C   0  0  0  0  0  0  0  0  0  0  0  0
    5.7980   11.1550   26.5600 C   0  0  0  0  0  0  0  0  0  0  0  0
    6.0610    9.8860   26.0970 C   0  0  0  0  0  0  0  0  0  0  0  0
    7.0820    9.6730   25.1860 C   0  0  0  0  0  0  0  0  0  0  0  0
  2  1  2  0
  3  2  1  0
  4  2  1  6
  5  4  1  0
  6  5  1  0
  7  6  1  0
  8  4  1  0
  9  8  1  0
  9  7  1  0
 10  9  1  0
 11 10  2  0
 12 10  1  0
 13 12  1  0
 14 13  2  0
 15 14  1  0
 16 13  1  0
 17 16  2  0
 18 17  1  0
 19 18  2  0
 19 14  1  0
M  END
>  <id>  (1) 
207363

>  <inchikey>  (1) 
AIEHCHWAPRSECY-NSHDSACASA-N

>  <alias>  (1) 
A3510a

>  <name>  (1) 
A3510a

>  <smiles>  (1) 
Cc1ccccc1NC(=O)N1CCC[C@H](C(N)=O)C1

>  <path>  (1) 
/opt/xchem-fragalysis-2/maxwin/2A_HIPPO/A71EV2A_P3only_20241211/aligned_files/A3510a/A3510a.pdb

>  <distance_score>  (1) 
None

>  <energy_score>  (1) 
None

>  <compound>  (1) 
AIEHCHWAPRSECY-UHFFFAOYSA-N

>  <compound_id>  (1) 
122445

>  <target>  (1) 
A71EV2A

$$$$
