A71EV2A-x3546_A_201_v1
     RDKit          3D

 21 22  0  0  0  0  0  0  0  0999 V2000
    9.8880   16.9400   19.5790 O   0  0  0  0  0  0  0  0  0  0  0  0
   10.2630   15.7770   19.7940 C   0  0  0  0  0  0  0  0  0  0  0  0
   10.6860   14.9720   18.8420 N   0  0  0  0  0  0  0  0  0  0  0  0
   10.3110   15.2110   21.2040 C   0  0  1  0  0  0  0  0  0  0  0  0
   11.4120   15.8860   22.0410 C   0  0  0  0  0  0  0  0  0  0  0  0
   11.4500   15.3670   23.4860 C   0  0  0  0  0  0  0  0  0  0  0  0
   10.0680   15.3850   24.1270 C   0  0  0  0  0  0  0  0  0  0  0  0
    8.9660   15.3140   21.9270 C   0  0  0  0  0  0  0  0  0  0  0  0
    9.0820   14.7160   23.2620 N   0  0  0  0  0  0  0  0  0  0  0  0
    8.3700   13.6180   23.5990 C   0  0  0  0  0  0  0  0  0  0  0  0
    7.5240   13.1420   22.8580 O   0  0  0  0  0  0  0  0  0  0  0  0
    8.6810   13.0150   24.9590 C   0  0  0  0  0  0  0  0  0  0  0  0
    7.7390   11.9000   25.3470 C   0  0  0  0  0  0  0  0  0  0  0  0
    7.9220   10.6090   24.8500 C   0  0  0  0  0  0  0  0  0  0  0  0
    8.9770   10.4760   23.9820 O   0  0  0  0  0  0  0  0  0  0  0  0
    9.3140    9.1640   23.5190 C   0  0  0  0  0  0  0  0  0  0  0  0
    6.7210   12.1250   26.2730 C   0  0  0  0  0  0  0  0  0  0  0  0
    5.9160   11.0810   26.6470 C   0  0  0  0  0  0  0  0  0  0  0  0
    4.8510   11.3540   27.4480 F   0  0  0  0  0  0  0  0  0  0  0  0
    6.0810    9.8050   26.1820 C   0  0  0  0  0  0  0  0  0  0  0  0
    7.0980    9.5670   25.2690 C   0  0  0  0  0  0  0  0  0  0  0  0
  2  1  2  0
  3  2  1  0
  4  2  1  6
  5  4  1  0
  6  5  1  0
  7  6  1  0
  8  4  1  0
  9  8  1  0
  9  7  1  0
 10  9  1  0
 11 10  2  0
 12 10  1  0
 13 12  1  0
 14 13  2  0
 15 14  1  0
 16 15  1  0
 17 13  1  0
 18 17  2  0
 19 18  1  0
 20 18  1  0
 21 20  2  0
 21 14  1  0
M  END
>  <id>  (1) 
207365

>  <inchikey>  (1) 
OAXWWUQUJMBBQP-JTQLQIEISA-N

>  <alias>  (1) 
A3546a

>  <name>  (1) 
A3546a

>  <smiles>  (1) 
COc1ccc(F)cc1CC(=O)N1CCC[C@H](C(N)=O)C1

>  <path>  (1) 
/opt/xchem-fragalysis-2/maxwin/2A_HIPPO/A71EV2A_P3only_20241211/aligned_files/A3546a/A3546a.pdb

>  <distance_score>  (1) 
None

>  <energy_score>  (1) 
None

>  <compound>  (1) 
OAXWWUQUJMBBQP-UHFFFAOYSA-N

>  <compound_id>  (1) 
122447

>  <target>  (1) 
A71EV2A

$$$$
