A71EV2A-x3550_A_202_v1
     RDKit          3D

 21 22  0  0  0  0  0  0  0  0999 V2000
   16.8590   -0.0730   20.6350 O   0  0  0  0  0  0  0  0  0  0  0  0
   18.0810    0.0150   20.6420 C   0  0  0  0  0  0  0  0  0  0  0  0
   18.7320    1.1660   20.5630 N   0  0  0  0  0  0  0  0  0  0  0  0
   18.9010   -1.2020   20.2970 C   0  0  2  0  0  0  0  0  0  0  0  0
   18.4190   -2.6100   20.4500 C   0  0  0  0  0  0  0  0  0  0  0  0
   20.3190   -1.2600   20.7720 C   0  0  0  0  0  0  0  0  0  0  0  0
   21.0890   -1.9360   19.6400 C   0  0  0  0  0  0  0  0  0  0  0  0
   20.3000   -3.0670   18.8930 C   0  0  2  0  0  0  0  0  0  0  0  0
   20.5970   -2.9580   17.4150 C   0  0  0  0  0  0  0  0  0  0  0  0
   18.8400   -3.1050   19.1580 N   0  0  0  0  0  0  0  0  0  0  0  0
   17.8460   -3.3850   18.2650 C   0  0  0  0  0  0  0  0  0  0  0  0
   18.1000   -3.6810   17.1160 O   0  0  0  0  0  0  0  0  0  0  0  0
   16.3990   -3.4270   18.7410 C   0  0  0  0  0  0  0  0  0  0  0  0
   15.6030   -4.5500   18.1090 C   0  0  0  0  0  0  0  0  0  0  0  0
   16.0130   -5.8840   18.2300 C   0  0  0  0  0  0  0  0  0  0  0  0
   17.2020   -6.0580   18.8810 O   0  0  0  0  0  0  0  0  0  0  0  0
   17.6020   -7.3940   19.2150 C   0  0  0  0  0  0  0  0  0  0  0  0
   14.4110   -4.2860   17.4450 C   0  0  0  0  0  0  0  0  0  0  0  0
   13.6530   -5.3050   16.9020 C   0  0  0  0  0  0  0  0  0  0  0  0
   14.0650   -6.6210   17.0420 C   0  0  0  0  0  0  0  0  0  0  0  0
   15.2530   -6.9110   17.6950 C   0  0  0  0  0  0  0  0  0  0  0  0
  2  1  2  0
  3  2  1  0
  4  2  1  1
  5  4  1  0
  6  4  1  0
  7  6  1  0
  8  7  1  0
  8  9  1  6
 10  8  1  0
 10  5  1  0
 11 10  1  0
 12 11  2  0
 13 11  1  0
 14 13  1  0
 15 14  2  0
 16 15  1  0
 17 16  1  0
 18 14  1  0
 19 18  2  0
 20 19  1  0
 21 20  2  0
 21 15  1  0
M  END
>  <id>  (1) 
207368

>  <inchikey>  (1) 
XJRJYHVAUXLXKS-AAEUAGOBSA-N

>  <alias>  (1) 
A3550b

>  <name>  (1) 
A3550b

>  <smiles>  (1) 
COc1ccccc1CC(=O)N1C[C@@H](C(N)=O)CC[C@@H]1C

>  <path>  (1) 
/opt/xchem-fragalysis-2/maxwin/2A_HIPPO/A71EV2A_P3only_20241211/aligned_files/A3550b/A3550b.pdb

>  <distance_score>  (1) 
None

>  <energy_score>  (1) 
None

>  <compound>  (1) 
XJRJYHVAUXLXKS-UHFFFAOYSA-N

>  <compound_id>  (1) 
122448

>  <target>  (1) 
A71EV2A

$$$$
