A71EV2A-x3556_A_201_v1
     RDKit          3D

 21 23  0  0  0  0  0  0  0  0999 V2000
    9.8020   16.5440   19.6600 O   0  0  0  0  0  0  0  0  0  0  0  0
   10.4640   15.5110   19.7990 C   0  0  0  0  0  0  0  0  0  0  0  0
   10.9360   14.8190   18.7740 N   0  0  0  0  0  0  0  0  0  0  0  0
   10.7300   14.9240   21.1750 C   0  0  1  0  0  0  0  0  0  0  0  0
   11.7010   15.7280   22.0560 C   0  0  0  0  0  0  0  0  0  0  0  0
   11.4430   15.1940   23.4630 C   0  0  0  0  0  0  0  0  0  0  0  0
    9.4770   14.8540   22.0520 C   0  0  0  0  0  0  0  0  0  0  0  0
   10.0290   14.7740   23.4100 N   0  0  0  0  0  0  0  0  0  0  0  0
    9.3440   14.4320   24.5210 C   0  0  0  0  0  0  0  0  0  0  0  0
    9.8730   14.4020   25.6210 O   0  0  0  0  0  0  0  0  0  0  0  0
    7.8660   14.1330   24.3550 C   0  0  0  0  0  0  0  0  0  0  0  0
    7.4140   12.8900   25.0920 C   0  0  0  0  0  0  0  0  0  0  0  0
    6.4890   12.9980   26.1290 C   0  0  0  0  0  0  0  0  0  0  0  0
    5.9280   11.8750   26.7230 C   0  0  0  0  0  0  0  0  0  0  0  0
    6.2980   10.6040   26.3120 C   0  0  0  0  0  0  0  0  0  0  0  0
    7.2570   10.4540   25.2950 C   0  0  0  0  0  0  0  0  0  0  0  0
    7.8130   11.5990   24.6860 C   0  0  0  0  0  0  0  0  0  0  0  0
    8.7290   11.0840   23.7340 C   0  0  0  0  0  0  0  0  0  0  0  0
    7.7860    9.2930   24.7680 N   0  0  0  0  0  0  0  0  0  0  0  0
    8.6740    9.7500   23.8360 N   0  0  0  0  0  0  0  0  0  0  0  0
    9.5450    8.8070   23.1330 C   0  0  0  0  0  0  0  0  0  0  0  0
  2  1  2  0
  3  2  1  0
  4  2  1  6
  5  4  1  0
  6  5  1  0
  7  4  1  0
  8  7  1  0
  8  6  1  0
  9  8  1  0
 10  9  2  0
 11  9  1  0
 12 11  1  0
 13 12  2  0
 14 13  1  0
 15 14  2  0
 16 15  1  0
 17 16  1  0
 17 12  1  0
 18 17  2  0
 19 16  2  0
 20 19  1  0
 20 18  1  0
 21 20  1  0
M  END
>  <id>  (1) 
207369

>  <inchikey>  (1) 
BRQFGLOHPDECRA-NSHDSACASA-N

>  <alias>  (1) 
A3556a

>  <name>  (1) 
A3556a

>  <smiles>  (1) 
Cn1cc2c(CC(=O)N3CC[C@H](C(N)=O)C3)cccc2n1

>  <path>  (1) 
/opt/xchem-fragalysis-2/maxwin/2A_HIPPO/A71EV2A_P3only_20241211/aligned_files/A3556a/A3556a.pdb

>  <distance_score>  (1) 
None

>  <energy_score>  (1) 
None

>  <compound>  (1) 
BRQFGLOHPDECRA-UHFFFAOYSA-N

>  <compound_id>  (1) 
122449

>  <target>  (1) 
A71EV2A

$$$$
