A71EV2A-x3550_A_203_v1
     RDKit          3D

 21 22  0  0  0  0  0  0  0  0999 V2000
    9.9710   17.0240   19.3570 O   0  0  0  0  0  0  0  0  0  0  0  0
   10.3780   15.8820   19.6150 C   0  0  0  0  0  0  0  0  0  0  0  0
   10.6360   14.9860   18.6780 N   0  0  0  0  0  0  0  0  0  0  0  0
   10.5030   15.4000   21.0490 C   0  0  2  0  0  0  0  0  0  0  0  0
    9.0840   15.1180   21.5690 C   0  0  0  0  0  0  0  0  0  0  0  0
   11.1990   16.4590   21.9400 C   0  0  0  0  0  0  0  0  0  0  0  0
   10.5790   16.5450   23.3440 C   0  0  0  0  0  0  0  0  0  0  0  0
   10.1090   15.1850   23.8580 C   0  0  2  0  0  0  0  0  0  0  0  0
   11.2770   14.2160   24.0500 C   0  0  0  0  0  0  0  0  0  0  0  0
    9.0760   14.6260   22.9570 N   0  0  0  0  0  0  0  0  0  0  0  0
    8.0790   13.7820   23.3540 C   0  0  0  0  0  0  0  0  0  0  0  0
    7.2290   13.3870   22.5590 O   0  0  0  0  0  0  0  0  0  0  0  0
    8.0420   13.3720   24.8140 C   0  0  0  0  0  0  0  0  0  0  0  0
    7.1400   12.1880   25.0690 C   0  0  0  0  0  0  0  0  0  0  0  0
    7.5020   10.9000   24.6570 C   0  0  0  0  0  0  0  0  0  0  0  0
    8.6180   10.8110   23.8560 O   0  0  0  0  0  0  0  0  0  0  0  0
    9.0690    9.5000   23.4900 C   0  0  0  0  0  0  0  0  0  0  0  0
    5.9790   12.3370   25.8320 C   0  0  0  0  0  0  0  0  0  0  0  0
    5.2210   11.2340   26.2030 C   0  0  0  0  0  0  0  0  0  0  0  0
    5.6040    9.9820   25.8220 C   0  0  0  0  0  0  0  0  0  0  0  0
    6.7410    9.8040   25.0400 C   0  0  0  0  0  0  0  0  0  0  0  0
  2  1  2  0
  3  2  1  0
  4  2  1  6
  5  4  1  0
  6  4  1  0
  7  6  1  0
  8  7  1  0
  8  9  1  6
 10  5  1  0
 10  8  1  0
 11 10  1  0
 12 11  2  0
 13 11  1  0
 14 13  1  0
 15 14  2  0
 16 15  1  0
 17 16  1  0
 18 14  1  0
 19 18  2  0
 20 19  1  0
 21 20  2  0
 21 15  1  0
M  END
>  <id>  (1) 
207367

>  <inchikey>  (1) 
XJRJYHVAUXLXKS-AAEUAGOBSA-N

>  <alias>  (1) 
A3550a

>  <name>  (1) 
A3550a

>  <smiles>  (1) 
COc1ccccc1CC(=O)N1C[C@@H](C(N)=O)CC[C@@H]1C

>  <path>  (1) 
/opt/xchem-fragalysis-2/maxwin/2A_HIPPO/A71EV2A_P3only_20241211/aligned_files/A3550a/A3550a.pdb

>  <distance_score>  (1) 
None

>  <energy_score>  (1) 
None

>  <compound>  (1) 
XJRJYHVAUXLXKS-UHFFFAOYSA-N

>  <compound_id>  (1) 
122448

>  <target>  (1) 
A71EV2A

$$$$
