A71EV2A-x3564_A_201_v1
     RDKit          3D

 19 20  0  0  0  0  0  0  0  0999 V2000
   11.9800   16.8110   18.8300 O   0  0  0  0  0  0  0  0  0  0  0  0
   11.7340   15.7000   19.3300 C   0  0  0  0  0  0  0  0  0  0  0  0
   11.1980   14.6820   18.6260 N   0  0  0  0  0  0  0  0  0  0  0  0
   12.0420   15.4780   20.7820 C   0  0  0  0  0  0  0  0  0  0  0  0
   12.9740   16.2970   21.4140 C   0  0  0  0  0  0  0  0  0  0  0  0
   13.3020   16.1910   22.7060 N   0  0  0  0  0  0  0  0  0  0  0  0
   12.6960   15.2350   23.4180 C   0  0  0  0  0  0  0  0  0  0  0  0
   11.4180   14.4970   21.5480 C   0  0  0  0  0  0  0  0  0  0  0  0
   11.7450   14.3650   22.8950 C   0  0  0  0  0  0  0  0  0  0  0  0
   11.1130   13.3350   23.7760 C   0  0  0  0  0  0  0  0  0  0  0  0
   11.7770   12.7370   24.6110 O   0  0  0  0  0  0  0  0  0  0  0  0
    9.7800   13.1300   23.6100 N   0  0  0  0  0  0  0  0  0  0  0  0
    8.9070   12.3080   24.3850 C   0  0  0  0  0  0  0  0  0  0  0  0
    8.9190   10.9070   24.2180 C   0  0  0  0  0  0  0  0  0  0  0  0
    9.8820   10.2060   23.2960 C   0  0  0  0  0  0  0  0  0  0  0  0
    8.0110   12.9160   25.2680 C   0  0  0  0  0  0  0  0  0  0  0  0
    7.1140   12.1340   25.9790 C   0  0  0  0  0  0  0  0  0  0  0  0
    7.1000   10.7650   25.8070 C   0  0  0  0  0  0  0  0  0  0  0  0
    7.9930   10.1610   24.9450 C   0  0  0  0  0  0  0  0  0  0  0  0
  2  1  2  0
  3  2  1  0
  4  2  1  0
  5  4  2  0
  6  5  1  0
  7  6  2  0
  8  4  1  0
  9  8  2  0
  9  7  1  0
 10  9  1  0
 11 10  2  0
 12 10  1  0
 13 12  1  0
 14 13  2  0
 15 14  1  0
 16 13  1  0
 17 16  2  0
 18 17  1  0
 19 18  2  0
 19 14  1  0
M  END
>  <id>  (1) 
207371

>  <inchikey>  (1) 
UWNHLJGYVVRCPX-UHFFFAOYSA-N

>  <alias>  (1) 
A3564a

>  <name>  (1) 
A3564a

>  <smiles>  (1) 
Cc1ccccc1NC(=O)c1cncc(C(N)=O)c1

>  <path>  (1) 
/opt/xchem-fragalysis-2/maxwin/2A_HIPPO/A71EV2A_P3only_20241211/aligned_files/A3564a/A3564a.pdb

>  <distance_score>  (1) 
None

>  <energy_score>  (1) 
None

>  <compound>  (1) 
UWNHLJGYVVRCPX-UHFFFAOYSA-N

>  <compound_id>  (1) 
122451

>  <target>  (1) 
A71EV2A

$$$$
