A71EV2A-x3568_A_201_v1
     RDKit          3D

 20 22  0  0  0  0  0  0  0  0999 V2000
   10.2670   13.8670   25.2490 O   0  0  0  0  0  0  0  0  0  0  0  0
   10.1480   13.1100   24.3040 C   0  0  0  0  0  0  0  0  0  0  0  0
    9.2000   11.9560   24.3970 C   0  0  0  0  0  0  0  0  0  0  0  0
    9.2210   10.6940   23.8510 C   0  0  0  0  0  0  0  0  0  0  0  0
    8.1980    9.9450   24.3600 N   0  0  0  0  0  0  0  0  0  0  0  0
    7.4690   10.7140   25.2350 C   0  0  0  0  0  0  0  0  0  0  0  0
    8.0610   11.9900   25.2860 C   0  0  0  0  0  0  0  0  0  0  0  0
    7.4980   12.9500   26.1160 C   0  0  0  0  0  0  0  0  0  0  0  0
    6.3950   12.6290   26.8860 C   0  0  0  0  0  0  0  0  0  0  0  0
    6.3590   10.4040   25.9980 C   0  0  0  0  0  0  0  0  0  0  0  0
    5.8290   11.3560   26.8590 C   0  0  0  0  0  0  0  0  0  0  0  0
    4.7300   10.9890   27.8140 C   0  0  0  0  0  0  0  0  0  0  0  0
   10.8720   13.2450   23.1880 N   0  0  0  0  0  0  0  0  0  0  0  0
   10.4370   14.0220   22.0520 C   0  0  0  0  0  0  0  0  0  0  0  0
   11.6040   14.6450   21.3150 C   0  0  0  0  0  0  0  0  0  0  0  0
   10.6370   15.5650   20.6890 C   0  0  0  0  0  0  0  0  0  0  0  0
   10.0520   16.5890   21.4010 N   0  0  0  0  0  0  0  0  0  0  0  0
    9.1210   17.0090   20.6330 C   0  0  0  0  0  0  0  0  0  0  0  0
    9.0290   16.3800   19.4530 O   0  0  0  0  0  0  0  0  0  0  0  0
   10.0250   15.4620   19.5090 C   0  0  0  0  0  0  0  0  0  0  0  0
  2  1  2  0
  3  2  1  0
  4  3  2  0
  5  4  1  0
  6  5  1  0
  7  6  2  0
  7  3  1  0
  8  7  1  0
  9  8  2  0
 10  6  1  0
 11 10  2  0
 11  9  1  0
 12 11  1  0
 13  2  1  0
 14 13  1  0
 15 14  1  0
 16 15  1  0
 17 16  1  0
 18 17  2  0
 19 18  1  0
 20 16  2  0
 20 19  1  0
M  END
>  <id>  (1) 
207372

>  <inchikey>  (1) 
LZYMZWBOIHZTRB-UHFFFAOYSA-N

>  <alias>  (1) 
A3568a

>  <name>  (1) 
A3568a

>  <smiles>  (1) 
Cc1ccc2c(C(=O)NCCc3cocn3)c[nH]c2c1

>  <path>  (1) 
/opt/xchem-fragalysis-2/maxwin/2A_HIPPO/A71EV2A_P3only_20241211/aligned_files/A3568a/A3568a.pdb

>  <distance_score>  (1) 
None

>  <energy_score>  (1) 
None

>  <compound>  (1) 
LZYMZWBOIHZTRB-UHFFFAOYSA-N

>  <compound_id>  (1) 
122452

>  <target>  (1) 
A71EV2A

$$$$
