A71EV2A-x3579_A_201_v1
     RDKit          3D

 19 20  0  0  0  0  0  0  0  0999 V2000
   10.9140   14.6870   25.4000 O   0  0  0  0  0  0  0  0  0  0  0  0
   10.8080   14.8700   24.1890 C   0  0  0  0  0  0  0  0  0  0  0  0
   11.9920   15.3490   23.3870 C   0  0  0  0  0  0  0  0  0  0  0  0
   11.6460   15.9190   22.0100 C   0  0  0  0  0  0  0  0  0  0  0  0
   10.6720   14.9860   21.2700 C   0  0  2  0  0  0  0  0  0  0  0  0
   10.3990   15.4830   19.8580 C   0  0  0  0  0  0  0  0  0  0  0  0
    9.8380   16.5660   19.6610 O   0  0  0  0  0  0  0  0  0  0  0  0
   10.7640   14.6780   18.8750 N   0  0  0  0  0  0  0  0  0  0  0  0
    9.3810   14.9100   22.0960 C   0  0  0  0  0  0  0  0  0  0  0  0
    9.6490   14.6490   23.5160 N   0  0  0  0  0  0  0  0  0  0  0  0
    8.4800   14.1480   24.2480 C   0  0  0  0  0  0  0  0  0  0  0  0
    8.4230   12.6390   24.3480 C   0  0  0  0  0  0  0  0  0  0  0  0
    7.4200   12.0390   25.1120 C   0  0  0  0  0  0  0  0  0  0  0  0
    6.5970   12.9170   25.7630 O   0  0  0  0  0  0  0  0  0  0  0  0
    5.6340   12.3880   26.6900 C   0  0  0  0  0  0  0  0  0  0  0  0
    9.3180   11.8110   23.6700 C   0  0  0  0  0  0  0  0  0  0  0  0
    9.2010   10.4350   23.7430 C   0  0  0  0  0  0  0  0  0  0  0  0
    8.2150    9.8660   24.5050 C   0  0  0  0  0  0  0  0  0  0  0  0
    7.3170   10.6600   25.1980 C   0  0  0  0  0  0  0  0  0  0  0  0
  2  1  2  0
  3  2  1  0
  4  3  1  0
  5  4  1  0
  5  6  1  6
  7  6  2  0
  8  6  1  0
  9  5  1  0
 10  9  1  0
 10  2  1  0
 11 10  1  0
 12 11  1  0
 13 12  2  0
 14 13  1  0
 15 14  1  0
 16 12  1  0
 17 16  2  0
 18 17  1  0
 19 18  2  0
 19 13  1  0
M  END
>  <id>  (1) 
207374

>  <inchikey>  (1) 
PBLXCFVVIRAUAX-NSHDSACASA-N

>  <alias>  (1) 
A3579a

>  <name>  (1) 
A3579a

>  <smiles>  (1) 
COc1ccccc1CN1C[C@@H](C(N)=O)CCC1=O

>  <path>  (1) 
/opt/xchem-fragalysis-2/maxwin/2A_HIPPO/A71EV2A_P3only_20241211/aligned_files/A3579a/A3579a.pdb

>  <distance_score>  (1) 
None

>  <energy_score>  (1) 
None

>  <compound>  (1) 
PBLXCFVVIRAUAX-UHFFFAOYSA-N

>  <compound_id>  (1) 
122454

>  <target>  (1) 
A71EV2A

$$$$
