A71EV2A-x3618_A_201_v1
     RDKit          3D

 23 24  0  0  0  0  0  0  0  0999 V2000
    9.9250   16.7890   19.4620 O   0  0  0  0  0  0  0  0  0  0  0  0
   10.3230   15.6380   19.7020 C   0  0  0  0  0  0  0  0  0  0  0  0
   10.7730   14.8380   18.7390 N   0  0  0  0  0  0  0  0  0  0  0  0
   10.2660   15.0500   21.1060 C   0  0  1  0  0  0  0  0  0  0  0  0
   11.2240   15.7330   22.1160 C   0  0  0  0  0  0  0  0  0  0  0  0
   11.1790   15.0000   23.4600 C   0  0  0  0  0  0  0  0  0  0  0  0
    9.7620   14.9920   24.0360 C   0  0  0  0  0  0  0  0  0  0  0  0
    8.8590   15.1330   21.7100 C   0  0  0  0  0  0  0  0  0  0  0  0
    8.7870   14.5060   23.0400 N   0  0  0  0  0  0  0  0  0  0  0  0
    7.8310   13.5680   23.3100 C   0  0  0  0  0  0  0  0  0  0  0  0
    7.1520   13.0920   22.4240 O   0  0  0  0  0  0  0  0  0  0  0  0
    7.5740   13.3030   24.6360 N   0  0  0  0  0  0  0  0  0  0  0  0
    6.7370   12.2500   25.1160 C   0  0  0  0  0  0  0  0  0  0  0  0
    7.1930   10.9670   24.8090 C   0  0  0  0  0  0  0  0  0  0  0  0
    6.4900    9.8560   25.2660 C   0  0  0  0  0  0  0  0  0  0  0  0
    5.3370   10.0140   26.0180 C   0  0  0  0  0  0  0  0  0  0  0  0
    5.5650   12.4010   25.8580 C   0  0  0  0  0  0  0  0  0  0  0  0
    4.8560   11.2850   26.3130 C   0  0  0  0  0  0  0  0  0  0  0  0
    3.5930   11.3940   27.1150 C   0  0  0  0  0  0  0  0  0  0  0  0
    3.2410   10.4940   27.8870 O   0  0  0  0  0  0  0  0  0  0  0  0
    2.8660   12.5040   26.9610 N   0  0  0  0  0  0  0  0  0  0  0  0
    1.6470   12.7430   27.7370 C   0  0  0  0  0  0  0  0  0  0  0  0
    0.5260   13.2070   26.8810 C   0  0  0  0  0  0  0  0  0  0  0  0
  2  1  2  0
  3  2  1  0
  4  2  1  6
  5  4  1  0
  6  5  1  0
  7  6  1  0
  8  4  1  0
  9  8  1  0
  9  7  1  0
 10  9  1  0
 11 10  2  0
 12 10  1  0
 13 12  1  0
 14 13  2  0
 15 14  1  0
 16 15  2  0
 17 13  1  0
 18 16  1  0
 18 17  2  0
 19 18  1  0
 20 19  2  0
 21 19  1  0
 22 21  1  0
 23 22  1  0
M  END
>  <id>  (1) 
207382

>  <inchikey>  (1) 
AHABGCZYHXNKLQ-LBPRGKRZSA-N

>  <alias>  (1) 
A3618a

>  <name>  (1) 
A3618a

>  <smiles>  (1) 
CCNC(=O)c1cccc(NC(=O)N2CCC[C@H](C(N)=O)C2)c1

>  <path>  (1) 
/opt/xchem-fragalysis-2/maxwin/2A_HIPPO/A71EV2A_P3only_20241211/aligned_files/A3618a/A3618a_hippo.pdb

>  <distance_score>  (1) 
None

>  <energy_score>  (1) 
None

>  <compound>  (1) 
AHABGCZYHXNKLQ-UHFFFAOYSA-N

>  <compound_id>  (1) 
122461

>  <target>  (1) 
A71EV2A

$$$$
