A71EV2A-x3663_A_201_v1
     RDKit          3D

 20 21  0  0  0  0  0  0  0  0999 V2000
    9.4910   16.4960   19.1280 O   0  0  0  0  0  0  0  0  0  0  0  0
   10.2500   15.6480   19.6050 C   0  0  0  0  0  0  0  0  0  0  0  0
   10.9770   14.8130   18.8820 N   0  0  0  0  0  0  0  0  0  0  0  0
   10.3830   15.5670   21.1110 C   0  0  2  0  0  0  0  0  0  0  0  0
   11.7300   15.2850   21.5190 O   0  0  0  0  0  0  0  0  0  0  0  0
   11.8110   15.2380   22.9520 C   0  0  0  0  0  0  0  0  0  0  0  0
   11.0210   14.0520   23.4800 C   0  0  0  0  0  0  0  0  0  0  0  0
    9.4850   14.4160   21.4970 C   0  0  0  0  0  0  0  0  0  0  0  0
    9.6600   14.0340   22.9020 N   0  0  0  0  0  0  0  0  0  0  0  0
    8.5570   13.5750   23.5340 C   0  0  0  0  0  0  0  0  0  0  0  0
    7.4740   13.4450   22.9660 O   0  0  0  0  0  0  0  0  0  0  0  0
    8.7340   13.1380   24.9730 C   0  0  0  0  0  0  0  0  0  0  0  0
    7.6850   12.1120   25.3250 C   0  0  0  0  0  0  0  0  0  0  0  0
    7.8060   10.8080   24.8610 C   0  0  0  0  0  0  0  0  0  0  0  0
    8.6330   10.6580   23.7780 O   0  0  0  0  0  0  0  0  0  0  0  0
    9.4920    9.5200   23.7450 C   0  0  0  0  0  0  0  0  0  0  0  0
    6.6390   12.4090   26.1930 C   0  0  0  0  0  0  0  0  0  0  0  0
    5.8000   11.4130   26.6570 C   0  0  0  0  0  0  0  0  0  0  0  0
    6.0030   10.1140   26.2750 C   0  0  0  0  0  0  0  0  0  0  0  0
    7.0010    9.8000   25.3650 C   0  0  0  0  0  0  0  0  0  0  0  0
  2  1  2  0
  3  2  1  0
  4  2  1  6
  5  4  1  0
  6  5  1  0
  7  6  1  0
  8  4  1  0
  9  8  1  0
  9  7  1  0
 10  9  1  0
 11 10  2  0
 12 10  1  0
 13 12  1  0
 14 13  2  0
 15 14  1  0
 16 15  1  0
 17 13  1  0
 18 17  2  0
 19 18  1  0
 20 19  2  0
 20 14  1  0
M  END
>  <id>  (1) 
207384

>  <inchikey>  (1) 
KJLPLKHZEUNURY-GFCCVEGCSA-N

>  <alias>  (1) 
A3663a

>  <name>  (1) 
A3663a

>  <smiles>  (1) 
COc1ccccc1CC(=O)N1CCO[C@@H](C(N)=O)C1

>  <path>  (1) 
/opt/xchem-fragalysis-2/maxwin/2A_HIPPO/A71EV2A_P3only_20241211/aligned_files/A3663a/A3663a.pdb

>  <distance_score>  (1) 
None

>  <energy_score>  (1) 
None

>  <compound>  (1) 
KJLPLKHZEUNURY-UHFFFAOYSA-N

>  <compound_id>  (1) 
122463

>  <target>  (1) 
A71EV2A

$$$$
