A71EV2A-x3694_A_201_v1
     RDKit          3D

 20 21  0  0  0  0  0  0  0  0999 V2000
    9.9640   16.8760   19.3550 O   0  0  0  0  0  0  0  0  0  0  0  0
   10.5840   15.8250   19.5330 C   0  0  0  0  0  0  0  0  0  0  0  0
   10.6530   14.8740   18.6190 N   0  0  0  0  0  0  0  0  0  0  0  0
   11.3390   15.5790   20.8180 C   0  0  0  0  0  0  0  0  0  0  0  0
   10.5110   15.8530   22.0330 C   0  0  2  0  0  0  0  0  0  0  0  0
   11.3180   15.5350   23.3080 C   0  0  0  0  0  0  0  0  0  0  0  0
   10.6590   14.3490   23.9860 C   0  0  0  0  0  0  0  0  0  0  0  0
    9.2410   15.0050   22.0970 C   0  0  0  0  0  0  0  0  0  0  0  0
    9.3260   14.2700   23.3610 N   0  0  0  0  0  0  0  0  0  0  0  0
    8.3000   13.5110   23.7780 C   0  0  0  0  0  0  0  0  0  0  0  0
    7.2830   13.3620   23.1120 O   0  0  0  0  0  0  0  0  0  0  0  0
    8.4770   12.8860   25.1490 C   0  0  0  0  0  0  0  0  0  0  0  0
    7.4630   11.7970   25.4160 C   0  0  0  0  0  0  0  0  0  0  0  0
    7.6400   10.5340   24.8580 C   0  0  0  0  0  0  0  0  0  0  0  0
    8.6820   10.4320   23.9750 O   0  0  0  0  0  0  0  0  0  0  0  0
    9.1150    9.1400   23.5780 C   0  0  0  0  0  0  0  0  0  0  0  0
    6.4060   11.9890   26.2990 C   0  0  0  0  0  0  0  0  0  0  0  0
    5.5580   10.9480   26.6280 C   0  0  0  0  0  0  0  0  0  0  0  0
    5.7550    9.7050   26.0840 C   0  0  0  0  0  0  0  0  0  0  0  0
    6.7970    9.4890   25.1930 C   0  0  0  0  0  0  0  0  0  0  0  0
  2  1  2  0
  3  2  1  0
  4  2  1  0
  5  4  1  6
  6  5  1  0
  7  6  1  0
  8  5  1  0
  9  8  1  0
  9  7  1  0
 10  9  1  0
 11 10  2  0
 12 10  1  0
 13 12  1  0
 14 13  2  0
 15 14  1  0
 16 15  1  0
 17 13  1  0
 18 17  2  0
 19 18  1  0
 20 19  2  0
 20 14  1  0
M  END
>  <id>  (1) 
207387

>  <inchikey>  (1) 
MSPWRYALONZABD-NSHDSACASA-N

>  <alias>  (1) 
A3694a

>  <name>  (1) 
A3694a

>  <smiles>  (1) 
COc1ccccc1CC(=O)N1CC[C@@H](CC(N)=O)C1

>  <path>  (1) 
/opt/xchem-fragalysis-2/maxwin/2A_HIPPO/A71EV2A_P3only_20241211/aligned_files/A3694a/A3694a_hippo.pdb

>  <distance_score>  (1) 
None

>  <energy_score>  (1) 
None

>  <compound>  (1) 
MSPWRYALONZABD-UHFFFAOYSA-N

>  <compound_id>  (1) 
122466

>  <target>  (1) 
A71EV2A

$$$$
