A71EV2A-x3867_A_201_v1
     RDKit          3D

 20 21  0  0  0  0  0  0  0  0999 V2000
   10.5000   16.8660   19.4460 O   0  0  0  0  0  0  0  0  0  0  0  0
   10.8700   15.7150   19.8000 C   0  0  0  0  0  0  0  0  0  0  0  0
   10.7830   14.6660   18.9840 N   0  0  0  0  0  0  0  0  0  0  0  0
   11.3960   15.4980   21.1900 C   0  0  0  0  0  0  0  0  0  0  0  0
   12.3600   16.3730   21.7340 C   0  0  0  0  0  0  0  0  0  0  0  0
   12.9960   17.4800   20.9320 C   0  0  0  0  0  0  0  0  0  0  0  0
   12.7380   16.1840   23.0640 C   0  0  0  0  0  0  0  0  0  0  0  0
   12.2100   15.1680   23.8370 C   0  0  0  0  0  0  0  0  0  0  0  0
   10.8780   14.4570   21.9770 C   0  0  0  0  0  0  0  0  0  0  0  0
   11.2750   14.2890   23.3030 C   0  0  0  0  0  0  0  0  0  0  0  0
   10.7140   13.2170   24.1850 C   0  0  0  0  0  0  0  0  0  0  0  0
   11.3640   12.7730   25.1250 O   0  0  0  0  0  0  0  0  0  0  0  0
    9.4470   12.8130   23.9190 N   0  0  0  0  0  0  0  0  0  0  0  0
    8.6600   11.9450   24.7260 C   0  0  0  0  0  0  0  0  0  0  0  0
    8.7560   10.5500   24.5690 C   0  0  0  0  0  0  0  0  0  0  0  0
    9.7460    9.9070   23.6330 C   0  0  0  0  0  0  0  0  0  0  0  0
    7.7400   12.4990   25.6180 C   0  0  0  0  0  0  0  0  0  0  0  0
    6.9110   11.6700   26.3560 C   0  0  0  0  0  0  0  0  0  0  0  0
    6.9920   10.3060   26.2110 C   0  0  0  0  0  0  0  0  0  0  0  0
    7.8970    9.7530   25.3240 C   0  0  0  0  0  0  0  0  0  0  0  0
  2  1  2  0
  3  2  1  0
  4  2  1  0
  5  4  2  0
  6  5  1  0
  7  5  1  0
  8  7  2  0
  9  4  1  0
 10  9  2  0
 10  8  1  0
 11 10  1  0
 12 11  2  0
 13 11  1  0
 14 13  1  0
 15 14  2  0
 16 15  1  0
 17 14  1  0
 18 17  2  0
 19 18  1  0
 20 19  2  0
 20 15  1  0
M  END
>  <id>  (1) 
207390

>  <inchikey>  (1) 
MQPWOZBWSFDFOW-UHFFFAOYSA-N

>  <alias>  (1) 
A3867a

>  <name>  (1) 
A3867a

>  <smiles>  (1) 
Cc1ccccc1NC(=O)c1ccc(C)c(C(N)=O)c1

>  <path>  (1) 
/opt/xchem-fragalysis-2/maxwin/2A_HIPPO/A71EV2A_P3only_20241211/aligned_files/A3867a/A3867a.pdb

>  <distance_score>  (1) 
None

>  <energy_score>  (1) 
None

>  <compound>  (1) 
MQPWOZBWSFDFOW-UHFFFAOYSA-N

>  <compound_id>  (1) 
122469

>  <target>  (1) 
A71EV2A

$$$$
