A71EV2A-x3890_A_201_v1
     RDKit          3D

 21 22  0  0  0  0  0  0  0  0999 V2000
    9.6620   16.6180   19.3930 O   0  0  0  0  0  0  0  0  0  0  0  0
   10.1660   15.5210   19.6480 C   0  0  0  0  0  0  0  0  0  0  0  0
   10.7130   14.7440   18.7220 N   0  0  0  0  0  0  0  0  0  0  0  0
   10.1680   14.9660   21.0630 C   0  0  1  0  0  0  0  0  0  0  0  0
   11.2830   15.5860   21.9160 C   0  0  0  0  0  0  0  0  0  0  0  0
   11.3570   14.8950   23.2750 C   0  0  0  0  0  0  0  0  0  0  0  0
   10.0240   14.9840   23.9810 C   0  0  0  0  0  0  0  0  0  0  0  0
    8.8290   15.0750   21.8000 C   0  0  0  0  0  0  0  0  0  0  0  0
    8.9270   14.4730   23.1360 N   0  0  0  0  0  0  0  0  0  0  0  0
    8.0070   13.5800   23.5650 C   0  0  0  0  0  0  0  0  0  0  0  0
    7.1370   13.1630   22.8280 O   0  0  0  0  0  0  0  0  0  0  0  0
    8.0130   13.1800   25.0590 C   0  0  1  0  0  0  0  0  0  0  0  0
    7.5390   14.3490   25.8310 N   0  0  0  0  0  0  0  0  0  0  0  0
    7.2060   11.9290   25.3820 C   0  0  0  0  0  0  0  0  0  0  0  0
    7.6180   10.6670   24.9560 C   0  0  0  0  0  0  0  0  0  0  0  0
    8.7190   10.6530   24.1420 O   0  0  0  0  0  0  0  0  0  0  0  0
    9.2420    9.3840   23.7340 C   0  0  0  0  0  0  0  0  0  0  0  0
    6.0950   12.0060   26.2180 C   0  0  0  0  0  0  0  0  0  0  0  0
    5.4320   10.8680   26.6330 C   0  0  0  0  0  0  0  0  0  0  0  0
    5.8510    9.6380   26.2070 C   0  0  0  0  0  0  0  0  0  0  0  0
    6.9400    9.5260   25.3610 C   0  0  0  0  0  0  0  0  0  0  0  0
  2  1  2  0
  3  2  1  0
  4  2  1  6
  5  4  1  0
  6  5  1  0
  7  6  1  0
  8  4  1  0
  9  8  1  0
  9  7  1  0
 10  9  1  0
 11 10  2  0
 12 10  1  0
 12 13  1  1
 14 12  1  0
 15 14  2  0
 16 15  1  0
 17 16  1  0
 18 14  1  0
 19 18  2  0
 20 19  1  0
 21 20  2  0
 21 15  1  0
M  END
>  <id>  (1) 
207395

>  <inchikey>  (1) 
CCGPYMIAYPDEFF-GWCFXTLKSA-N

>  <alias>  (1) 
A3890a

>  <name>  (1) 
A3890a

>  <smiles>  (1) 
COc1ccccc1[C@H](N)C(=O)N1CCC[C@H](C(N)=O)C1

>  <path>  (1) 
/opt/xchem-fragalysis-2/maxwin/2A_HIPPO/A71EV2A_P3only_20241211/aligned_files/A3890a/A3890a.pdb

>  <distance_score>  (1) 
None

>  <energy_score>  (1) 
None

>  <compound>  (1) 
CCGPYMIAYPDEFF-UHFFFAOYSA-N

>  <compound_id>  (1) 
122473

>  <target>  (1) 
A71EV2A

$$$$
