A71EV2A-x3914_A_201_v1
     RDKit          3D

 22 24  0  0  0  0  0  0  0  0999 V2000
   10.0310   16.8130   19.4300 O   0  0  0  0  0  0  0  0  0  0  0  0
   10.3170   15.6470   19.7180 C   0  0  0  0  0  0  0  0  0  0  0  0
   10.7290   14.7700   18.8180 N   0  0  0  0  0  0  0  0  0  0  0  0
   10.2920   15.1630   21.1580 C   0  0  1  0  0  0  0  0  0  0  0  0
   11.3390   15.9130   21.9980 C   0  0  0  0  0  0  0  0  0  0  0  0
   11.3300   15.4790   23.4670 C   0  0  0  0  0  0  0  0  0  0  0  0
    9.9320   15.5780   24.0410 C   0  0  0  0  0  0  0  0  0  0  0  0
    8.9100   15.2540   21.8210 C   0  0  0  0  0  0  0  0  0  0  0  0
    8.9730   14.8160   23.2200 N   0  0  0  0  0  0  0  0  0  0  0  0
    8.1420   13.8580   23.7000 C   0  0  0  0  0  0  0  0  0  0  0  0
    7.4050   13.2100   22.9650 O   0  0  0  0  0  0  0  0  0  0  0  0
    8.1200   13.6540   25.2050 C   0  0  0  0  0  0  0  0  0  0  0  0
    7.4860   12.3390   25.6080 C   0  0  0  0  0  0  0  0  0  0  0  0
    6.4670   12.3090   26.5640 C   0  0  0  0  0  0  0  0  0  0  0  0
    5.8650   11.1190   26.9460 C   0  0  0  0  0  0  0  0  0  0  0  0
    6.2560    9.9180   26.3710 C   0  0  0  0  0  0  0  0  0  0  0  0
    7.2800    9.9040   25.4050 C   0  0  0  0  0  0  0  0  0  0  0  0
    7.9100   11.1140   25.0430 C   0  0  0  0  0  0  0  0  0  0  0  0
    8.9450   10.7260   24.1470 C   0  0  0  0  0  0  0  0  0  0  0  0
    7.8480    8.8290   24.7480 N   0  0  0  0  0  0  0  0  0  0  0  0
    8.8510    9.3990   24.0200 N   0  0  0  0  0  0  0  0  0  0  0  0
    9.6850    8.5870   23.1340 C   0  0  0  0  0  0  0  0  0  0  0  0
  2  1  2  0
  3  2  1  0
  4  2  1  6
  5  4  1  0
  6  5  1  0
  7  6  1  0
  8  4  1  0
  9  8  1  0
  9  7  1  0
 10  9  1  0
 11 10  2  0
 12 10  1  0
 13 12  1  0
 14 13  2  0
 15 14  1  0
 16 15  2  0
 17 16  1  0
 18 17  1  0
 18 13  1  0
 19 18  2  0
 20 17  2  0
 21 20  1  0
 21 19  1  0
 22 21  1  0
M  END
>  <id>  (1) 
207398

>  <inchikey>  (1) 
GWEIDNCYZCGNCA-LBPRGKRZSA-N

>  <alias>  (1) 
A3914a

>  <name>  (1) 
A3914a

>  <smiles>  (1) 
Cn1cc2c(CC(=O)N3CCC[C@H](C(N)=O)C3)cccc2n1

>  <path>  (1) 
/opt/xchem-fragalysis-2/maxwin/2A_HIPPO/A71EV2A_P3only_20241211/aligned_files/A3914a/A3914a.pdb

>  <distance_score>  (1) 
None

>  <energy_score>  (1) 
None

>  <compound>  (1) 
GWEIDNCYZCGNCA-UHFFFAOYSA-N

>  <compound_id>  (1) 
113

>  <target>  (1) 
A71EV2A

$$$$
