A71EV2A-x3982_A_201_v1
     RDKit          3D

 24 26  0  0  0  0  0  0  0  0999 V2000
    7.3730   13.4620   22.7650 O   0  0  0  0  0  0  0  0  0  0  0  0
    8.1760   13.9730   23.5280 C   0  0  0  0  0  0  0  0  0  0  0  0
    8.8970   15.0640   23.1820 N   0  0  0  0  0  0  0  0  0  0  0  0
    9.8350   15.7980   24.0470 C   0  0  0  0  0  0  0  0  0  0  0  0
   11.2460   15.7440   23.4820 C   0  0  0  0  0  0  0  0  0  0  0  0
   11.2610   16.2030   22.0230 C   0  0  0  0  0  0  0  0  0  0  0  0
    8.8570   15.5900   21.8170 C   0  0  0  0  0  0  0  0  0  0  0  0
   10.2360   15.4270   21.1730 C   0  0  1  0  0  0  0  0  0  0  0  0
   10.1710   15.9760   19.7590 C   0  0  0  0  0  0  0  0  0  0  0  0
    9.8520   17.1470   19.5470 O   0  0  0  0  0  0  0  0  0  0  0  0
   10.4460   15.1130   18.7920 N   0  0  0  0  0  0  0  0  0  0  0  0
    8.4450   13.3600   24.9060 C   0  0  2  0  0  0  0  0  0  0  0  0
    8.3880   11.8390   24.8140 C   0  0  0  0  0  0  0  0  0  0  0  0
    9.3170   11.1640   24.0290 C   0  0  0  0  0  0  0  0  0  0  0  0
    9.2420    9.7950   23.8630 C   0  0  0  0  0  0  0  0  0  0  0  0
    8.2530    9.0780   24.4850 C   0  0  0  0  0  0  0  0  0  0  0  0
    7.3330    9.7270   25.2820 C   0  0  0  0  0  0  0  0  0  0  0  0
    7.3970   11.1010   25.4440 C   0  0  0  0  0  0  0  0  0  0  0  0
    7.6130   14.0350   25.9920 C   0  0  0  0  0  0  0  0  0  0  0  0
    8.2320   14.5810   27.1060 C   0  0  0  0  0  0  0  0  0  0  0  0
    7.4930   15.2220   28.0820 C   0  0  0  0  0  0  0  0  0  0  0  0
    6.1260   15.3440   27.9490 C   0  0  0  0  0  0  0  0  0  0  0  0
    5.5020   14.8290   26.8390 C   0  0  0  0  0  0  0  0  0  0  0  0
    6.2390   14.1750   25.8670 C   0  0  0  0  0  0  0  0  0  0  0  0
  2  1  2  0
  3  2  1  0
  4  3  1  0
  5  4  1  0
  6  5  1  0
  7  3  1  0
  8  7  1  0
  8  6  1  0
  8  9  1  6
 10  9  2  0
 11  9  1  0
 12  2  1  6
 13 12  1  0
 14 13  2  0
 15 14  1  0
 16 15  2  0
 17 16  1  0
 18 17  2  0
 18 13  1  0
 19 12  1  0
 20 19  2  0
 21 20  1  0
 22 21  2  0
 23 22  1  0
 24 23  2  0
 24 19  1  0
M  END
>  <id>  (1) 
207404

>  <inchikey>  (1) 
VJCDCBHTHBGHRC-KRWDZBQOSA-N

>  <alias>  (1) 
A3982a

>  <name>  (1) 
A3982a

>  <smiles>  (1) 
NC(=O)[C@H]1CCCN(C(=O)C(c2ccccc2)c2ccccc2)C1

>  <path>  (1) 
/opt/xchem-fragalysis-2/maxwin/2A_HIPPO/A71EV2A_P3only_20241211/aligned_files/A3982a/A3982a.pdb

>  <distance_score>  (1) 
None

>  <energy_score>  (1) 
None

>  <compound>  (1) 
VJCDCBHTHBGHRC-UHFFFAOYSA-N

>  <compound_id>  (1) 
122480

>  <target>  (1) 
A71EV2A

$$$$
