A71EV2A-x3989_A_201_v1
     RDKit          3D

 22 23  0  0  0  0  0  0  0  0999 V2000
    9.2640   11.1280   23.5220 Cl  0  0  0  0  0  0  0  0  0  0  0  0
    8.0050   11.3320   24.7020 C   0  0  0  0  0  0  0  0  0  0  0  0
    7.5410   10.2110   25.3670 C   0  0  0  0  0  0  0  0  0  0  0  0
    6.5850   10.3490   26.3580 C   0  0  0  0  0  0  0  0  0  0  0  0
    6.0950   11.6070   26.6850 C   0  0  0  0  0  0  0  0  0  0  0  0
    5.0780   11.7910   27.7590 C   0  0  1  0  0  0  0  0  0  0  0  0
    5.1370   10.8510   28.6790 F   0  0  0  0  0  0  0  0  0  0  0  0
    5.2430   12.9170   28.4230 F   0  0  0  0  0  0  0  0  0  0  0  0
    3.8390   11.8500   27.2780 F   0  0  0  0  0  0  0  0  0  0  0  0
    6.5690   12.7110   25.9910 C   0  0  0  0  0  0  0  0  0  0  0  0
    7.5200   12.6030   24.9830 C   0  0  0  0  0  0  0  0  0  0  0  0
    7.9060   13.8270   24.1850 C   0  0  0  0  0  0  0  0  0  0  0  0
    9.3430   14.2460   24.4280 C   0  0  0  0  0  0  0  0  0  0  0  0
    9.8480   14.1950   25.5380 O   0  0  0  0  0  0  0  0  0  0  0  0
   10.0140   14.7110   23.3540 N   0  0  0  0  0  0  0  0  0  0  0  0
   11.3670   15.2740   23.4380 C   0  0  0  0  0  0  0  0  0  0  0  0
   11.5310   15.9570   22.0830 C   0  0  0  0  0  0  0  0  0  0  0  0
    9.4800   14.7630   21.9870 C   0  0  0  0  0  0  0  0  0  0  0  0
   10.7360   15.0200   21.1580 C   0  0  1  0  0  0  0  0  0  0  0  0
   10.4220   15.5610   19.7710 C   0  0  0  0  0  0  0  0  0  0  0  0
    9.9110   16.6770   19.6140 O   0  0  0  0  0  0  0  0  0  0  0  0
   10.7200   14.7530   18.7650 N   0  0  0  0  0  0  0  0  0  0  0  0
  2  1  1  0
  3  2  2  0
  4  3  1  0
  5  4  2  0
  6  5  1  0
  6  7  1  1
  8  6  1  0
  9  6  1  0
 10  5  1  0
 11 10  2  0
 11  2  1  0
 12 11  1  0
 13 12  1  0
 14 13  2  0
 15 13  1  0
 16 15  1  0
 17 16  1  0
 18 15  1  0
 19 18  1  0
 19 17  1  0
 19 20  1  6
 21 20  2  0
 22 20  1  0
M  END
>  <id>  (1) 
207405

>  <inchikey>  (1) 
HVQIWPCPNWMLEJ-QMMMGPOBSA-N

>  <alias>  (1) 
A3989a

>  <name>  (1) 
A3989a

>  <smiles>  (1) 
NC(=O)[C@H]1CCN(C(=O)Cc2cc(C(F)(F)F)ccc2Cl)C1

>  <path>  (1) 
/opt/xchem-fragalysis-2/maxwin/2A_HIPPO/A71EV2A_P3only_20241211/aligned_files/A3989a/A3989a.pdb

>  <distance_score>  (1) 
None

>  <energy_score>  (1) 
None

>  <compound>  (1) 
HVQIWPCPNWMLEJ-UHFFFAOYSA-N

>  <compound_id>  (1) 
122481

>  <target>  (1) 
A71EV2A

$$$$
