A71EV2A-x4017_A_201_v1
     RDKit          3D

 22 24  0  0  0  0  0  0  0  0999 V2000
   10.0920   16.8330   19.3940 O   0  0  0  0  0  0  0  0  0  0  0  0
   10.5900   15.7340   19.6460 C   0  0  0  0  0  0  0  0  0  0  0  0
   10.7430   14.7850   18.7360 N   0  0  0  0  0  0  0  0  0  0  0  0
   11.0450   15.3850   21.0520 C   0  0  1  0  0  0  0  0  0  0  0  0
   11.8810   16.5210   21.6530 C   0  0  0  0  0  0  0  0  0  0  0  0
   12.2980   16.2080   23.0860 C   0  0  0  0  0  0  0  0  0  0  0  0
   11.0930   15.9250   23.9590 C   0  0  0  0  0  0  0  0  0  0  0  0
    9.8270   15.2360   21.9660 C   0  0  0  0  0  0  0  0  0  0  0  0
   10.2630   14.8990   23.3250 N   0  0  0  0  0  0  0  0  0  0  0  0
    9.9020   13.7820   24.0010 C   0  0  0  0  0  0  0  0  0  0  0  0
   10.0490   13.7010   25.2160 O   0  0  0  0  0  0  0  0  0  0  0  0
    9.4380   12.7570   23.2430 N   0  0  0  0  0  0  0  0  0  0  0  0
    8.8800   11.5820   23.7680 C   0  0  0  0  0  0  0  0  0  0  0  0
    9.3730   10.3120   23.4770 C   0  0  0  0  0  0  0  0  0  0  0  0
    8.7250    9.1800   23.9470 C   0  0  0  0  0  0  0  0  0  0  0  0
    7.6030    9.2890   24.7570 C   0  0  0  0  0  0  0  0  0  0  0  0
    7.1480   10.5550   25.0890 C   0  0  0  0  0  0  0  0  0  0  0  0
    6.1520   10.9640   25.9170 N   0  0  0  0  0  0  0  0  0  0  0  0
    5.3380   10.1550   26.8060 C   0  0  0  0  0  0  0  0  0  0  0  0
    7.7490   11.7190   24.5830 C   0  0  0  0  0  0  0  0  0  0  0  0
    6.9970   12.7800   25.1510 C   0  0  0  0  0  0  0  0  0  0  0  0
    6.0470   12.3240   25.9390 N   0  0  0  0  0  0  0  0  0  0  0  0
  2  1  2  0
  3  2  1  0
  4  2  1  6
  5  4  1  0
  6  5  1  0
  7  6  1  0
  8  4  1  0
  9  8  1  0
  9  7  1  0
 10  9  1  0
 11 10  2  0
 12 10  1  0
 13 12  1  0
 14 13  2  0
 15 14  1  0
 16 15  2  0
 17 16  1  0
 18 17  1  0
 19 18  1  0
 20 17  2  0
 20 13  1  0
 21 20  1  0
 22 21  2  0
 22 18  1  0
M  END
>  <id>  (1) 
207408

>  <inchikey>  (1) 
ZWLQWOFMLDHIDB-JTQLQIEISA-N

>  <alias>  (1) 
A4017a

>  <name>  (1) 
A4017a

>  <smiles>  (1) 
Cn1ncc2c(NC(=O)N3CCC[C@H](C(N)=O)C3)cccc21

>  <path>  (1) 
/opt/xchem-fragalysis-2/maxwin/2A_HIPPO/A71EV2A_P3only_20241211/aligned_files/A4017a/A4017a_hippo.pdb

>  <distance_score>  (1) 
None

>  <energy_score>  (1) 
None

>  <compound>  (1) 
ZWLQWOFMLDHIDB-UHFFFAOYSA-N

>  <compound_id>  (1) 
122484

>  <target>  (1) 
A71EV2A

$$$$
