A71EV2A-x4029_A_201_v1
     RDKit          3D

 19 20  0  0  0  0  0  0  0  0999 V2000
   10.8550   14.7130   25.3970 O   0  0  0  0  0  0  0  0  0  0  0  0
   10.7860   14.8840   24.1880 C   0  0  0  0  0  0  0  0  0  0  0  0
   11.9450   15.5020   23.4410 C   0  0  0  0  0  0  0  0  0  0  0  0
   11.8440   15.5880   21.9090 C   0  0  0  0  0  0  0  0  0  0  0  0
   10.3910   15.6450   21.4190 C   0  0  1  0  0  0  0  0  0  0  0  0
   10.2660   15.8230   19.9150 C   0  0  0  0  0  0  0  0  0  0  0  0
    9.7320   16.8270   19.4530 O   0  0  0  0  0  0  0  0  0  0  0  0
   10.7100   14.8320   19.1420 N   0  0  0  0  0  0  0  0  0  0  0  0
    9.6020   14.4840   22.0110 C   0  0  0  0  0  0  0  0  0  0  0  0
    9.6890   14.5320   23.4740 N   0  0  0  0  0  0  0  0  0  0  0  0
    8.4770   14.1100   24.1830 C   0  0  0  0  0  0  0  0  0  0  0  0
    8.3810   12.6080   24.3090 C   0  0  0  0  0  0  0  0  0  0  0  0
    7.4060   12.0120   25.1140 C   0  0  0  0  0  0  0  0  0  0  0  0
    6.6010   12.8870   25.8020 O   0  0  0  0  0  0  0  0  0  0  0  0
    5.5370   12.3420   26.5910 C   0  0  0  0  0  0  0  0  0  0  0  0
    9.2810   11.7740   23.6400 C   0  0  0  0  0  0  0  0  0  0  0  0
    9.2000   10.3990   23.7550 C   0  0  0  0  0  0  0  0  0  0  0  0
    8.2280    9.8310   24.5330 C   0  0  0  0  0  0  0  0  0  0  0  0
    7.3270   10.6280   25.2180 C   0  0  0  0  0  0  0  0  0  0  0  0
  2  1  2  0
  3  2  1  0
  4  3  1  0
  5  4  1  0
  5  6  1  6
  7  6  2  0
  8  6  1  0
  9  5  1  0
 10  9  1  0
 10  2  1  0
 11 10  1  0
 12 11  1  0
 13 12  2  0
 14 13  1  0
 15 14  1  0
 16 12  1  0
 17 16  2  0
 18 17  1  0
 19 18  2  0
 19 13  1  0
M  END
>  <id>  (1) 
207411

>  <inchikey>  (1) 
PBLXCFVVIRAUAX-LLVKDONJSA-N

>  <alias>  (1) 
A4029a

>  <name>  (1) 
A4029a

>  <smiles>  (1) 
COc1ccccc1CN1C[C@H](C(N)=O)CCC1=O

>  <path>  (1) 
/opt/xchem-fragalysis-2/maxwin/2A_HIPPO/A71EV2A_P3only_20241211/aligned_files/A4029a/A4029a.pdb

>  <distance_score>  (1) 
None

>  <energy_score>  (1) 
None

>  <compound>  (1) 
PBLXCFVVIRAUAX-UHFFFAOYSA-N

>  <compound_id>  (1) 
122454

>  <target>  (1) 
A71EV2A

$$$$
