A71EV2A-x4031_A_201_v1
     RDKit          3D

 20 21  0  0  0  0  0  0  0  0999 V2000
    9.7440   16.7850   19.6570 O   0  0  0  0  0  0  0  0  0  0  0  0
   10.1850   15.6420   19.8550 C   0  0  0  0  0  0  0  0  0  0  0  0
   10.5840   14.8380   18.8660 N   0  0  0  0  0  0  0  0  0  0  0  0
   10.2320   15.0440   21.2500 C   0  0  1  0  0  0  0  0  0  0  0  0
   11.3350   15.6820   22.1200 C   0  0  0  0  0  0  0  0  0  0  0  0
   11.3820   15.0060   23.4910 C   0  0  0  0  0  0  0  0  0  0  0  0
   10.0130   15.0590   24.1750 C   0  0  0  0  0  0  0  0  0  0  0  0
    8.8800   15.1850   21.9540 C   0  0  0  0  0  0  0  0  0  0  0  0
    8.9360   14.5740   23.2880 N   0  0  0  0  0  0  0  0  0  0  0  0
    8.1130   13.5270   23.5920 C   0  0  0  0  0  0  0  0  0  0  0  0
    7.3550   13.0520   22.7560 O   0  0  0  0  0  0  0  0  0  0  0  0
    8.1780   13.0570   24.8740 N   0  0  0  0  0  0  0  0  0  0  0  0
    7.4150   11.9450   25.3160 C   0  0  0  0  0  0  0  0  0  0  0  0
    7.7040   10.6330   24.7890 C   0  0  0  0  0  0  0  0  0  0  0  0
    8.7280   10.5530   23.9200 O   0  0  0  0  0  0  0  0  0  0  0  0
    9.1170    9.2390   23.4690 C   0  0  0  0  0  0  0  0  0  0  0  0
    6.4030   12.0500   26.2760 C   0  0  0  0  0  0  0  0  0  0  0  0
    5.7270   10.9010   26.6630 C   0  0  0  0  0  0  0  0  0  0  0  0
    6.0620    9.7010   26.0720 C   0  0  0  0  0  0  0  0  0  0  0  0
    7.0540    9.5460   25.1670 N   0  0  0  0  0  0  0  0  0  0  0  0
  2  1  2  0
  3  2  1  0
  4  2  1  6
  5  4  1  0
  6  5  1  0
  7  6  1  0
  8  4  1  0
  9  8  1  0
  9  7  1  0
 10  9  1  0
 11 10  2  0
 12 10  1  0
 13 12  1  0
 14 13  2  0
 15 14  1  0
 16 15  1  0
 17 13  1  0
 18 17  2  0
 19 18  1  0
 20 19  2  0
 20 14  1  0
M  END
>  <id>  (1) 
207412

>  <inchikey>  (1) 
RJRRIOPTPBEHKH-VIFPVBQESA-N

>  <alias>  (1) 
A4031a

>  <name>  (1) 
A4031a

>  <smiles>  (1) 
COc1ncccc1NC(=O)N1CCC[C@H](C(N)=O)C1

>  <path>  (1) 
/opt/xchem-fragalysis-2/maxwin/2A_HIPPO/A71EV2A_P3only_20241211/aligned_files/A4031a/A4031a_hippo.pdb

>  <distance_score>  (1) 
None

>  <energy_score>  (1) 
None

>  <compound>  (1) 
RJRRIOPTPBEHKH-UHFFFAOYSA-N

>  <compound_id>  (1) 
122487

>  <target>  (1) 
A71EV2A

$$$$
