A71EV2A-x4274_A_201_v1
     RDKit          3D

 18 19  0  0  0  0  0  0  0  0999 V2000
    9.7650   16.8100   19.8000 O   0  0  0  0  0  0  0  0  0  0  0  0
   10.1990   15.6680   20.0030 C   0  0  0  0  0  0  0  0  0  0  0  0
   10.5760   14.8640   19.0160 N   0  0  0  0  0  0  0  0  0  0  0  0
   10.2720   15.0940   21.4070 C   0  0  1  0  0  0  0  0  0  0  0  0
   11.1940   15.9180   22.3220 C   0  0  0  0  0  0  0  0  0  0  0  0
   11.2020   15.3140   23.7270 C   0  0  0  0  0  0  0  0  0  0  0  0
    9.7930   15.1690   24.2650 C   0  0  0  0  0  0  0  0  0  0  0  0
    8.8560   14.9950   21.9920 C   0  0  0  0  0  0  0  0  0  0  0  0
    8.8790   14.4420   23.3650 N   0  0  0  0  0  0  0  0  0  0  0  0
    9.1620   12.9940   23.3950 C   0  0  0  0  0  0  0  0  0  0  0  0
    8.1900   12.2200   24.2630 C   0  0  0  0  0  0  0  0  0  0  0  0
    8.1640   10.8280   24.2340 C   0  0  0  0  0  0  0  0  0  0  0  0
    9.0230   10.2690   23.3410 O   0  0  0  0  0  0  0  0  0  0  0  0
    9.0940    8.8230   23.2810 C   0  0  0  0  0  0  0  0  0  0  0  0
    7.3750   12.9120   25.0700 N   0  0  0  0  0  0  0  0  0  0  0  0
    6.5330   12.2370   25.8690 C   0  0  0  0  0  0  0  0  0  0  0  0
    6.4510   10.8650   25.8970 C   0  0  0  0  0  0  0  0  0  0  0  0
    7.2760   10.1370   25.0520 C   0  0  0  0  0  0  0  0  0  0  0  0
  2  1  2  0
  3  2  1  0
  4  2  1  6
  5  4  1  0
  6  5  1  0
  7  6  1  0
  8  4  1  0
  9  8  1  0
  9  7  1  0
 10  9  1  0
 11 10  1  0
 12 11  2  0
 13 12  1  0
 14 13  1  0
 15 11  1  0
 16 15  2  0
 17 16  1  0
 18 17  2  0
 18 12  1  0
M  END
>  <id>  (1) 
207413

>  <inchikey>  (1) 
NASHQEPHZGSRGM-JTQLQIEISA-N

>  <alias>  (1) 
A4274a

>  <name>  (1) 
A4274a

>  <smiles>  (1) 
COc1cccnc1CN1CCC[C@H](C(N)=O)C1

>  <path>  (1) 
/opt/xchem-fragalysis-2/maxwin/2A_HIPPO/A71EV2A_P3only_20241211/aligned_files/A4274a/A4274a_hippo.pdb

>  <distance_score>  (1) 
None

>  <energy_score>  (1) 
None

>  <compound>  (1) 
NASHQEPHZGSRGM-UHFFFAOYSA-N

>  <compound_id>  (1) 
122488

>  <target>  (1) 
A71EV2A

$$$$
