A71EV2A-x4305_A_201_v1
     RDKit          3D

 22 23  0  0  0  0  0  0  0  0999 V2000
    9.6670   16.6640   19.4770 O   0  0  0  0  0  0  0  0  0  0  0  0
   10.1720   15.5570   19.7110 C   0  0  0  0  0  0  0  0  0  0  0  0
   10.7570   14.8140   18.7770 N   0  0  0  0  0  0  0  0  0  0  0  0
   10.1310   14.9540   21.1030 C   0  0  1  0  0  0  0  0  0  0  0  0
   11.1740   15.5890   22.0440 C   0  0  0  0  0  0  0  0  0  0  0  0
   11.1420   14.9190   23.4200 C   0  0  0  0  0  0  0  0  0  0  0  0
    9.7380   14.9670   24.0080 C   0  0  0  0  0  0  0  0  0  0  0  0
    8.7520   15.0910   21.7510 C   0  0  0  0  0  0  0  0  0  0  0  0
    8.7570   14.4190   23.0560 N   0  0  0  0  0  0  0  0  0  0  0  0
    7.7640   13.5510   23.3870 C   0  0  0  0  0  0  0  0  0  0  0  0
    6.9740   13.1500   22.5480 O   0  0  0  0  0  0  0  0  0  0  0  0
    7.6680   13.2260   24.7090 N   0  0  0  0  0  0  0  0  0  0  0  0
    6.7330   12.3700   25.3460 C   0  0  0  0  0  0  0  0  0  0  0  0
    5.7620   12.8400   26.2290 C   0  0  0  0  0  0  0  0  0  0  0  0
    5.0230   11.9400   26.9810 C   0  0  0  0  0  0  0  0  0  0  0  0
    5.2330   10.5770   26.8490 C   0  0  0  0  0  0  0  0  0  0  0  0
    6.1780   10.0930   25.9560 C   0  0  0  0  0  0  0  0  0  0  0  0
    6.9140   10.9860   25.1980 C   0  0  0  0  0  0  0  0  0  0  0  0
    7.7910   10.6200   24.2040 O   0  0  0  0  0  0  0  0  0  0  0  0
    8.9590    9.8290   24.5320 C   0  0  1  0  0  0  0  0  0  0  0  0
    9.3190    8.9350   23.3890 C   0  0  0  0  0  0  0  0  0  0  0  0
   10.0510   10.7780   24.8810 C   0  0  0  0  0  0  0  0  0  0  0  0
  2  1  2  0
  3  2  1  0
  4  2  1  6
  5  4  1  0
  6  5  1  0
  7  6  1  0
  8  4  1  0
  9  8  1  0
  9  7  1  0
 10  9  1  0
 11 10  2  0
 12 10  1  0
 13 12  1  0
 14 13  2  0
 15 14  1  0
 16 15  2  0
 17 16  1  0
 18 17  2  0
 18 13  1  0
 19 18  1  0
 20 19  1  0
 20 21  1  6
 22 20  1  0
M  END
>  <id>  (1) 
207417

>  <inchikey>  (1) 
LHHFKNNKVNZWBU-LBPRGKRZSA-N

>  <alias>  (1) 
A4305a

>  <name>  (1) 
A4305a

>  <smiles>  (1) 
CC(C)Oc1ccccc1NC(=O)N1CCC[C@H](C(N)=O)C1

>  <path>  (1) 
/opt/xchem-fragalysis-2/maxwin/2A_HIPPO/A71EV2A_P3only_20241211/aligned_files/A4305a/A4305a.pdb

>  <distance_score>  (1) 
None

>  <energy_score>  (1) 
None

>  <compound>  (1) 
LHHFKNNKVNZWBU-UHFFFAOYSA-N

>  <compound_id>  (1) 
122492

>  <target>  (1) 
A71EV2A

$$$$
