A71EV2A-x3208_A_201_1_A71EV2A-x0526+A+147+1__LIG
     RDKit          3D

 23 24  0  0  0  0  0  0  0  0999 V2000
    9.2230   10.3480   23.6190 Cl  0  0  0  0  0  0  0  0  0  0  0  0
    7.9050   10.6440   24.7110 C   0  0  0  0  0  0  0  0  0  0  0  0
    7.1130    9.5770   25.0940 C   0  0  0  0  0  0  0  0  0  0  0  0
    6.0510    9.7850   25.9570 C   0  0  0  0  0  0  0  0  0  0  0  0
    5.7850   11.0590   26.4480 C   0  0  0  0  0  0  0  0  0  0  0  0
    4.7540   11.2850   27.5080 C   0  0  0  0  0  0  0  0  0  0  0  0
    5.2240   11.9780   28.5180 F   0  0  0  0  0  0  0  0  0  0  0  0
    4.3550   10.1690   28.0840 F   0  0  0  0  0  0  0  0  0  0  0  0
    3.6690   11.9570   27.0690 F   0  0  0  0  0  0  0  0  0  0  0  0
    6.5860   12.1150   26.0260 C   0  0  0  0  0  0  0  0  0  0  0  0
    7.6650   11.9350   25.1640 C   0  0  0  0  0  0  0  0  0  0  0  0
    8.5830   13.0860   24.8360 C   0  0  0  0  0  0  0  0  0  0  0  0
    8.2730   13.6880   23.4790 C   0  0  0  0  0  0  0  0  0  0  0  0
    7.4010   13.2280   22.7590 O   0  0  0  0  0  0  0  0  0  0  0  0
    9.0260   14.7440   23.1040 N   0  0  0  0  0  0  0  0  0  0  0  0
   10.0580   15.3670   23.9500 C   0  0  0  0  0  0  0  0  0  0  0  0
   11.4180   15.2420   23.2790 C   0  0  0  0  0  0  0  0  0  0  0  0
   11.3670   15.8430   21.8750 C   0  0  0  0  0  0  0  0  0  0  0  0
    8.9330   15.2930   21.7470 C   0  0  0  0  0  0  0  0  0  0  0  0
   10.2810   15.1470   21.0310 C   0  0  1  0  0  0  0  0  0  0  0  0
   10.2350   15.6740   19.6070 C   0  0  0  0  0  0  0  0  0  0  0  0
    9.7940   16.8020   19.3600 O   0  0  0  0  0  0  0  0  0  0  0  0
   10.6400   14.8300   18.6630 N   0  0  0  0  0  0  0  0  0  0  0  0
 23 21  1  0
 22 21  2  0
 20 21  1  6
 20 18  1  0
 18 17  1  0
 17 16  1  0
 16 15  1  0
 15 13  1  0
 14 13  2  0
 13 12  1  0
 12 11  1  0
 11 10  2  0
 10  5  1  0
  6  5  1  0
  9  6  1  0
  8  6  1  0
  7  6  1  0
  5  4  2  0
  4  3  1  0
  3  2  2  0
 11  2  1  0
  2  1  1  0
 19 15  1  0
 20 19  1  0
M  END
$$$$
