ver_1.2
     RDKit          3D

 14 14  0  0  0  0  0  0  0  0999 V2000
    4.0136    1.7781   -0.8117 C   0  0  0  0  0  0  0  0  0  0  0  0
    3.5654    0.5965   -0.2223 O   0  0  0  0  0  0  0  0  0  0  0  0
    2.2023    0.4822   -0.4921 C   0  0  0  0  0  0  0  0  0  0  0  0
    1.7403   -0.7822    0.1430 C   0  0  0  0  0  0  0  0  0  0  0  0
    2.1752   -1.7443    0.8210 O   0  0  0  0  0  0  0  0  0  0  0  0
    0.3312   -0.9997   -0.0771 N   0  0  0  0  0  0  0  0  0  0  0  0
   -0.3352   -2.1798    0.4574 C   0  0  0  0  0  0  0  0  0  0  0  0
   -1.2924   -1.6713    1.5156 C   0  0  0  0  0  0  0  0  0  0  0  0
   -2.3407   -0.8011    0.8215 C   0  0  0  0  0  0  0  0  0  0  0  0
   -1.5834    0.3746    0.2273 C   0  0  0  0  0  0  0  0  0  0  0  0
   -2.4401    1.3984   -0.3632 C   0  0  0  0  0  0  0  0  0  0  0  0
   -1.7544    2.5112   -0.9271 N   0  0  0  0  0  0  0  0  0  0  0  0
   -3.6803    1.1775   -0.3045 O   0  0  0  0  0  0  0  0  0  0  0  0
   -0.6014   -0.1402   -0.8176 C   0  0  0  0  0  0  0  0  0  0  0  0
  1  2  1  0
  2  3  1  0
  3  4  1  0
  4  5  2  0
  4  6  1  0
  6  7  1  0
  7  8  1  0
  8  9  1  0
  9 10  1  0
 10 11  1  0
 11 12  1  0
 11 13  2  0
 10 14  1  0
 14  6  1  0
M  END
>  <ref_url>  (1) 
https://mwinokan.github.io/2A_HIPPO

>  <submitter_name>  (1) 
Max Winokan

>  <submitter_email>  (1) 
max.winokan@diamond.ac.uk

>  <submitter_institution>  (1) 
DLS

>  <generation_date>  (1) 
2024-11-22

>  <method>  (1) 
HIPPO_Recipe_1LPUPHX

>  <exports>  (1) 
exports

>  <smiles>  (1) 
smiles

>  <ref_mols>  (1) 
fragment inspirations

>  <original ID>  (1) 
original ID

$$$$
A0926a
     RDKit          3D

 14 14  0  0  0  0  0  0  0  0999 V2000
    9.5830   16.4380   19.6530 O   0  0  0  0  0  0  0  0  0  0  0  0
    9.9710   15.2800   19.8130 C   0  0  0  0  0  0  0  0  0  0  0  0
   10.3380   14.5040   18.8070 N   0  0  0  0  0  0  0  0  0  0  0  0
   10.0110   14.6480   21.1930 C   0  0  1  0  0  0  0  0  0  0  0  0
   11.1010   15.2730   22.0740 C   0  0  0  0  0  0  0  0  0  0  0  0
   11.1170   14.6050   23.4430 C   0  0  0  0  0  0  0  0  0  0  0  0
    9.7600   14.7300   24.0750 C   0  0  0  0  0  0  0  0  0  0  0  0
    8.6660   14.7820   21.9040 C   0  0  0  0  0  0  0  0  0  0  0  0
    8.7520   14.1180   23.2050 N   0  0  0  0  0  0  0  0  0  0  0  0
    8.0280   13.0380   23.5580 C   0  0  0  0  0  0  0  0  0  0  0  0
    7.0660   12.6630   22.9050 O   0  0  0  0  0  0  0  0  0  0  0  0
    8.5030   12.2940   24.7970 C   0  0  0  0  0  0  0  0  0  0  0  0
    7.7420   11.1400   25.1340 O   0  0  0  0  0  0  0  0  0  0  0  0
    6.4580   11.4460   25.6750 C   0  0  0  0  0  0  0  0  0  0  0  0
 14 13  1  0
 13 12  1  0
 12 10  1  0
 11 10  2  0
 10  9  1  0
  9  7  1  0
  7  6  1  0
  6  5  1  0
  5  4  1  0
  8  4  1  0
  9  8  1  0
  4  2  1  6
  2  1  2  0
  3  2  1  0
M  END
>  <Crystalforms alias>  (1) 
nan

>  <original ID>  (1) 
A0926a

>  <alias>  (1) 
A0926a

>  <distance_score>  (1) 
nan

>  <CanonSites upload name>  (1) 
nan

>  <CanonSites alias>  (1) 
nan

>  <ConformerSites alias>  (1) 
nan

>  <observation_longname>  (1) 
nan

>  <CrystalformSites alias>  (1) 
nan

>  <tags>  (1) 
['[Other] S2 site', 'hits', '[Other] New', 'Crystalforms short tag', '[Other] Fragment', 'Quatassemblies short tag', '[Series] Piperidine series', 'Pose', 'CrystalformSites short tag', 'ConformerSites short tag', 'CanonSites short tag']

>  <ref_mols>  (1) 


>  <ref_pdb>  (1) 


>  <Quatassemblies upload name>  (1) 
nan

>  <inchikey>  (1) 
VINVRWFILPAKSR-ZETCQYMHSA-N

>  <Experiment code>  (1) 
nan

>  <Quatassemblies alias>  (1) 
nan

>  <Crystalforms upload name>  (1) 
nan

>  <Centroid res>  (1) 
nan

>  <ConformerSites upload name>  (1) 
nan

>  <energy_score>  (1) 
nan

>  <original SMILES>  (1) 
COCC(=O)N1CCC[C@H](C(N)=O)C1

>  <exports>  (1) 
['/opt/xchem-fragalysis-2/maxwin/2A_HIPPO/web/web_resources/hit_poses.sdf']

>  <CrystalformSites upload name>  (1) 
nan

>  <name>  (1) 
A0926a

>  <HIPPO ID>  (1) 
91

$$$$
A1346a
     RDKit          3D

 29 31  0  0  0  0  0  0  0  0999 V2000
    8.6890   16.8200   21.0270 Cl  0  0  0  0  0  0  0  0  0  0  0  0
    8.6310   15.1490   21.6240 C   0  0  0  0  0  0  0  0  0  0  0  0
    7.2590   14.6010   21.9600 C   0  0  0  0  0  0  0  0  0  0  0  0
    7.0630   13.4040   21.8150 O   0  0  0  0  0  0  0  0  0  0  0  0
    6.3290   15.4290   22.4320 N   0  0  0  0  0  0  0  0  0  0  0  0
    5.0750   14.9650   23.0120 C   0  0  0  0  0  0  0  0  0  0  0  0
    5.1590   14.9580   24.5460 C   0  0  1  0  0  0  0  0  0  0  0  0
    3.8000   14.9120   25.2190 C   0  0  0  0  0  0  0  0  0  0  0  0
    3.3890   13.8070   25.9190 C   0  0  0  0  0  0  0  0  0  0  0  0
    2.1210   13.7570   26.5460 C   0  0  0  0  0  0  0  0  0  0  0  0
    1.6920   12.6450   27.3150 C   0  0  0  0  0  0  0  0  0  0  0  0
    0.4700   12.6500   27.9260 C   0  0  0  0  0  0  0  0  0  0  0  0
   -0.3790   13.7400   27.8020 C   0  0  0  0  0  0  0  0  0  0  0  0
   -0.0070   14.8300   27.0680 C   0  0  0  0  0  0  0  0  0  0  0  0
    1.2570   14.8730   26.4270 C   0  0  0  0  0  0  0  0  0  0  0  0
    1.7090   15.9960   25.6990 C   0  0  0  0  0  0  0  0  0  0  0  0
    2.9490   16.0090   25.1290 C   0  0  0  0  0  0  0  0  0  0  0  0
    6.0780   13.9250   25.0210 N   0  0  0  0  0  0  0  0  0  0  0  0
    6.8810   14.1040   26.0760 C   0  0  0  0  0  0  0  0  0  0  0  0
    7.0340   15.2000   26.6090 O   0  0  0  0  0  0  0  0  0  0  0  0
    7.5850   12.8830   26.6280 C   0  0  0  0  0  0  0  0  0  0  0  0
    7.6700   11.6540   25.7610 C   0  0  0  0  0  0  0  0  0  0  0  0
    6.9730   10.4340   25.9340 C   0  0  0  0  0  0  0  0  0  0  0  0
    5.8460   10.1400   26.8700 C   0  0  0  0  0  0  0  0  0  0  0  0
    8.5580   11.3740   24.7270 C   0  0  0  0  0  0  0  0  0  0  0  0
    9.5080   12.2920   24.0400 C   0  0  0  0  0  0  0  0  0  0  0  0
    8.3990   10.0890   24.3920 N   0  0  0  0  0  0  0  0  0  0  0  0
    7.4180    9.4920   25.1190 N   0  0  0  0  0  0  0  0  0  0  0  0
    9.1500    9.3030   23.4200 C   0  0  0  0  0  0  0  0  0  0  0  0
 24 23  1  0
 23 28  2  0
 28 27  1  0
 29 27  1  0
 27 25  1  0
 26 25  1  0
 25 22  2  0
 23 22  1  0
 22 21  1  0
 21 19  1  0
 20 19  2  0
 19 18  1  0
 18  7  1  0
  7  6  1  6
  6  5  1  0
  5  3  1  0
  4  3  2  0
  3  2  1  0
  2  1  1  0
  8  7  1  0
  8 17  2  0
 17 16  1  0
 16 15  2  0
 15 14  1  0
 14 13  2  0
 13 12  1  0
 12 11  2  0
 11 10  1  0
 15 10  1  0
 10  9  2  0
  9  8  1  0
M  END
>  <Crystalforms alias>  (2) 
F3 - A71/2A/open/long/cell

>  <original ID>  (2) 
A1346a

>  <alias>  (2) 
A1346a

>  <distance_score>  (2) 
nan

>  <CanonSites upload name>  (2) 
1 - A71EV2A-x0526/A/147/1

>  <CanonSites alias>  (2) 
1 - Active Site

>  <ConformerSites alias>  (2) 
1a - A0526/A/147

>  <observation_longname>  (2) 
A71EV2A-x1346_A_250_1_A71EV2A-x0526+A+147+1

>  <CrystalformSites alias>  (2) 
F3c - A0487/A/250

>  <tags>  (2) 
['[Other] S2 site', '[Other] P2 Wave 1', 'hits', '[Other] New', '[Other] S3 site', 'Crystalforms short tag', 'Quatassemblies short tag', 'Pose', 'CrystalformSites short tag', 'ConformerSites short tag', 'CanonSites short tag']

>  <ref_mols>  (2) 


>  <ref_pdb>  (2) 


>  <Quatassemblies upload name>  (2) 
A1 - monomer

>  <inchikey>  (2) 
BKBFLODZEQEWBQ-FQEVSTJZSA-N

>  <Experiment code>  (2) 
A71EV2A-x1346

>  <Quatassemblies alias>  (2) 
A1 - monomer

>  <Crystalforms upload name>  (2) 
F3 - A71/2A/open/long/cell

>  <Centroid res>  (2) 
A71EV2A-x0526/A/133/A_v1

>  <ConformerSites upload name>  (2) 
1a - A71EV2A-x0526/A/147

>  <energy_score>  (2) 
nan

>  <original SMILES>  (2) 
Cc1nn(C)c(C)c1CC(=O)N[C@@H](CNC(=O)CCl)c1ccc2ccccc2c1

>  <exports>  (2) 
['/opt/xchem-fragalysis-2/maxwin/2A_HIPPO/web/web_resources/hit_poses.sdf']

>  <CrystalformSites upload name>  (2) 
F3c - A71EV2A-x0487/A/250/1

>  <name>  (2) 
A1346a

>  <HIPPO ID>  (2) 
115

$$$$
A1445a
     RDKit          3D

 18 18  0  0  0  0  0  0  0  0999 V2000
    0.7930   10.8450   29.2880 F   0  0  0  0  0  0  0  0  0  0  0  0
    1.6450   10.0100   29.8890 C   0  0  0  0  0  0  0  0  0  0  0  0
    1.3730   10.0620   31.1930 F   0  0  0  0  0  0  0  0  0  0  0  0
    1.3220    8.7830   29.4820 F   0  0  0  0  0  0  0  0  0  0  0  0
    3.0820   10.3540   29.5910 C   0  0  2  0  0  0  0  0  0  0  0  0
    3.3160   11.8390   29.8690 C   0  0  0  0  0  0  0  0  0  0  0  0
    3.4070    9.9970   28.1340 C   0  0  0  0  0  0  0  0  0  0  0  0
    4.7720   10.4460   27.6340 C   0  0  0  0  0  0  0  0  0  0  0  0
    5.6110   10.9550   28.3750 O   0  0  0  0  0  0  0  0  0  0  0  0
    4.9760   10.2760   26.2960 N   0  0  0  0  0  0  0  0  0  0  0  0
    6.1390   10.6150   25.6050 C   0  0  0  0  0  0  0  0  0  0  0  0
    7.0540    9.8460   24.9410 C   0  0  0  0  0  0  0  0  0  0  0  0
    6.5020   11.9190   25.4180 N   0  0  0  0  0  0  0  0  0  0  0  0
    5.8550   13.1390   25.8830 C   0  0  0  0  0  0  0  0  0  0  0  0
    7.6220   12.0170   24.6520 N   0  0  0  0  0  0  0  0  0  0  0  0
    7.9540   10.7400   24.3440 C   0  0  0  0  0  0  0  0  0  0  0  0
    8.9740   10.4680   23.5240 O   0  0  0  0  0  0  0  0  0  0  0  0
    9.2580    9.0780   23.2270 C   0  0  0  0  0  0  0  0  0  0  0  0
 18 17  1  0
 17 16  1  0
 16 12  1  0
 12 11  2  0
 11 10  1  0
 10  8  1  0
  9  8  2  0
  8  7  1  0
  7  5  1  0
  5  6  1  6
  5  2  1  0
  3  2  1  0
  4  2  1  0
  2  1  1  0
 13 11  1  0
 14 13  1  0
 15 13  1  0
 16 15  2  0
M  END
>  <Crystalforms alias>  (3) 
F3 - A71/2A/open/long/cell

>  <original ID>  (3) 
A1445a

>  <alias>  (3) 
A1445a

>  <distance_score>  (3) 
nan

>  <CanonSites upload name>  (3) 
1 - A71EV2A-x0526/A/147/1

>  <CanonSites alias>  (3) 
1 - Active Site

>  <ConformerSites alias>  (3) 
1a - A0526/A/147

>  <observation_longname>  (3) 
A71EV2A-x1445_B_201_1_A71EV2A-x0526+A+147+1

>  <CrystalformSites alias>  (3) 
F3c - A0487/A/250

>  <tags>  (3) 
['hits', '[Other] New', 'Crystalforms short tag', 'Quatassemblies short tag', 'Pose', 'CrystalformSites short tag', 'ConformerSites short tag', 'CanonSites short tag']

>  <ref_mols>  (3) 


>  <ref_pdb>  (3) 


>  <Quatassemblies upload name>  (3) 
A1 - monomer

>  <inchikey>  (3) 
NZVJBVJDSSUPIL-ZCFIWIBFSA-N

>  <Experiment code>  (3) 
A71EV2A-x1445

>  <Quatassemblies alias>  (3) 
A1 - monomer

>  <Crystalforms upload name>  (3) 
F3 - A71/2A/open/long/cell

>  <Centroid res>  (3) 
A71EV2A-x0526/A/133/A_v1

>  <ConformerSites upload name>  (3) 
1a - A71EV2A-x0526/A/147

>  <energy_score>  (3) 
nan

>  <original SMILES>  (3) 
COc1cc(NC(=O)C[C@@H](C)C(F)(F)F)n(C)n1

>  <exports>  (3) 
['/opt/xchem-fragalysis-2/maxwin/2A_HIPPO/web/web_resources/hit_poses.sdf']

>  <CrystalformSites upload name>  (3) 
F3c - A71EV2A-x0487/A/250/1

>  <name>  (3) 
A1445a

>  <HIPPO ID>  (3) 
116

$$$$
A1445b
     RDKit          3D

 18 18  0  0  0  0  0  0  0  0999 V2000
    3.6740   12.8450   19.8250 F   0  0  0  0  0  0  0  0  0  0  0  0
    2.8110   12.0550   19.1810 C   0  0  0  0  0  0  0  0  0  0  0  0
    3.2030   10.8050   19.4100 F   0  0  0  0  0  0  0  0  0  0  0  0
    2.9930   12.2820   17.8750 F   0  0  0  0  0  0  0  0  0  0  0  0
    1.3820   12.2660   19.6140 C   0  0  2  0  0  0  0  0  0  0  0  0
    0.4310   11.7790   18.5250 C   0  0  0  0  0  0  0  0  0  0  0  0
    1.0970   13.7470   19.8680 C   0  0  0  0  0  0  0  0  0  0  0  0
    1.8940   14.3790   20.9870 C   0  0  0  0  0  0  0  0  0  0  0  0
    2.6810   15.2900   20.7710 O   0  0  0  0  0  0  0  0  0  0  0  0
    1.6870   13.8630   22.2410 N   0  0  0  0  0  0  0  0  0  0  0  0
    2.2970   14.3660   23.3910 C   0  0  0  0  0  0  0  0  0  0  0  0
    1.7800   14.8370   24.5660 C   0  0  0  0  0  0  0  0  0  0  0  0
    3.6350   14.6090   23.4200 N   0  0  0  0  0  0  0  0  0  0  0  0
    4.6580   14.2480   22.4470 C   0  0  0  0  0  0  0  0  0  0  0  0
    3.9970   15.2570   24.5700 N   0  0  0  0  0  0  0  0  0  0  0  0
    2.8450   15.4050   25.2870 C   0  0  0  0  0  0  0  0  0  0  0  0
    2.7200   16.0400   26.4660 O   0  0  0  0  0  0  0  0  0  0  0  0
    3.6360   15.6760   27.5270 C   0  0  0  0  0  0  0  0  0  0  0  0
 18 17  1  0
 17 16  1  0
 16 12  1  0
 12 11  2  0
 11 10  1  0
 10  8  1  0
  9  8  2  0
  8  7  1  0
  7  5  1  0
  5  6  1  6
  5  2  1  0
  3  2  1  0
  4  2  1  0
  2  1  1  0
 13 11  1  0
 14 13  1  0
 15 13  1  0
 16 15  2  0
M  END
>  <Crystalforms alias>  (4) 
F3 - A71/2A/open/long/cell

>  <original ID>  (4) 
A1445b

>  <alias>  (4) 
A1445b

>  <distance_score>  (4) 
nan

>  <CanonSites upload name>  (4) 
1 - A71EV2A-x0526/A/147/1

>  <CanonSites alias>  (4) 
1 - Active Site

>  <ConformerSites alias>  (4) 
1a - A0526/A/147

>  <observation_longname>  (4) 
A71EV2A-x1445_B_301_1_A71EV2A-x0526+A+147+1

>  <CrystalformSites alias>  (4) 
F3c - A0487/A/250

>  <tags>  (4) 
['[Other] P2 Wave 1', 'hits', '[Other] New', 'Crystalforms short tag', 'Quatassemblies short tag', 'Pose', 'CrystalformSites short tag', 'ConformerSites short tag', 'CanonSites short tag']

>  <ref_mols>  (4) 


>  <ref_pdb>  (4) 


>  <Quatassemblies upload name>  (4) 
A1 - monomer

>  <inchikey>  (4) 
NZVJBVJDSSUPIL-ZCFIWIBFSA-N

>  <Experiment code>  (4) 
A71EV2A-x1445

>  <Quatassemblies alias>  (4) 
A1 - monomer

>  <Crystalforms upload name>  (4) 
F3 - A71/2A/open/long/cell

>  <Centroid res>  (4) 
A71EV2A-x0526/A/133/A_v1

>  <ConformerSites upload name>  (4) 
1a - A71EV2A-x0526/A/147

>  <energy_score>  (4) 
nan

>  <original SMILES>  (4) 
COc1cc(NC(=O)C[C@@H](C)C(F)(F)F)n(C)n1

>  <exports>  (4) 
['/opt/xchem-fragalysis-2/maxwin/2A_HIPPO/web/web_resources/hit_poses.sdf']

>  <CrystalformSites upload name>  (4) 
F3c - A71EV2A-x0487/A/250/1

>  <name>  (4) 
A1445b

>  <HIPPO ID>  (4) 
117

$$$$
A1775a
     RDKit          3D

 13 13  0  0  0  0  0  0  0  0999 V2000
   12.0570    9.3980   21.5150 O   0  0  0  0  0  0  0  0  0  0  0  0
   11.9960   10.4120   22.1880 C   0  0  0  0  0  0  0  0  0  0  0  0
   13.0380   11.4880   22.0630 C   0  0  0  0  0  0  0  0  0  0  0  0
   13.8550   11.4350   20.7920 C   0  0  0  0  0  0  0  0  0  0  0  0
   10.8620   10.6200   23.1350 C   0  0  0  0  0  0  0  0  0  0  0  0
   10.6230   11.8370   23.7740 C   0  0  0  0  0  0  0  0  0  0  0  0
    9.5190   12.0020   24.5930 C   0  0  0  0  0  0  0  0  0  0  0  0
    9.9800    9.5650   23.3610 C   0  0  0  0  0  0  0  0  0  0  0  0
    8.8850    9.7220   24.1920 C   0  0  0  0  0  0  0  0  0  0  0  0
    8.6450   10.9390   24.7950 C   0  0  0  0  0  0  0  0  0  0  0  0
    7.4910   10.9740   25.5510 O   0  0  0  0  0  0  0  0  0  0  0  0
    7.0220   12.2590   26.0150 C   0  0  0  0  0  0  0  0  0  0  0  0
    5.6900   12.0650   26.5740 C   0  0  0  0  0  0  0  0  0  0  0  0
 13 12  1  0
 12 11  1  0
 11 10  1  0
 10  7  2  0
  7  6  1  0
  6  5  2  0
  5  2  1  0
  2  1  2  0
  3  2  1  0
  4  3  1  0
  8  5  1  0
  9  8  2  0
 10  9  1  0
M  END
>  <Crystalforms alias>  (5) 
F1 - A71/2A/open

>  <original ID>  (5) 
A1775a

>  <alias>  (5) 
A1775a

>  <distance_score>  (5) 
nan

>  <CanonSites upload name>  (5) 
1 - A71EV2A-x0526/A/147/1

>  <CanonSites alias>  (5) 
1 - Active Site

>  <ConformerSites alias>  (5) 
1a - A0526/A/147

>  <observation_longname>  (5) 
A71EV2A-x1775_A_201_1_A71EV2A-x0526+A+147+1

>  <CrystalformSites alias>  (5) 
F1g - A0853/A/147

>  <tags>  (5) 
['hits', '[Other] New', 'Crystalforms short tag', 'Quatassemblies short tag', '[Other] Bogyo covalents', 'Pose', 'CrystalformSites short tag', 'ConformerSites short tag', '[Other] Covalent', 'CanonSites short tag']

>  <ref_mols>  (5) 


>  <ref_pdb>  (5) 


>  <Quatassemblies upload name>  (5) 
A1 - monomer

>  <inchikey>  (5) 
XZJXCESWBMDSBO-UHFFFAOYSA-N

>  <Experiment code>  (5) 
A71EV2A-x1775

>  <Quatassemblies alias>  (5) 
A1 - monomer

>  <Crystalforms upload name>  (5) 
F1 - A71/2A/open

>  <Centroid res>  (5) 
A71EV2A-x0526/A/133/A_v1

>  <ConformerSites upload name>  (5) 
1a - A71EV2A-x0526/A/147

>  <energy_score>  (5) 
nan

>  <original SMILES>  (5) 
CCOc1ccc(C(=O)CC)cc1

>  <exports>  (5) 
['/opt/xchem-fragalysis-2/maxwin/2A_HIPPO/web/web_resources/hit_poses.sdf']

>  <CrystalformSites upload name>  (5) 
F1g - A71EV2A-x0853/A/147/1

>  <name>  (5) 
A1775a

>  <HIPPO ID>  (5) 
118

$$$$
DQWUNIXDDNPLQU-FQEVSTJZSA-N
     RDKit          3D

 29 31  0  0  0  0  0  0  0  0999 V2000
    6.0190   10.2927   27.0172 C   0  0  0  0  0  0  0  0  0  0  0  0
    7.0979   10.5747   26.0384 C   0  0  0  0  0  0  0  0  0  0  0  0
    7.5219    9.6061   25.2256 N   0  0  0  0  0  0  0  0  0  0  0  0
    8.4638   10.1891   24.4597 N   0  0  0  0  0  0  0  0  0  0  0  0
    9.1588    9.3950   23.4732 C   0  0  0  0  0  0  0  0  0  0  0  0
    8.6664   11.5087   24.7719 C   0  0  0  0  0  0  0  0  0  0  0  0
    9.6344   12.3835   24.0612 C   0  0  0  0  0  0  0  0  0  0  0  0
    7.8288   11.7751   25.8428 C   0  0  0  0  0  0  0  0  0  0  0  0
    7.7669   13.0161   26.6567 C   0  0  0  0  0  0  0  0  0  0  0  0
    6.9952   14.1939   26.1231 C   0  0  0  0  0  0  0  0  0  0  0  0
    7.1551   15.2898   26.6659 O   0  0  0  0  0  0  0  0  0  0  0  0
    6.1290   13.9893   25.0858 N   0  0  0  0  0  0  0  0  0  0  0  0
    5.2178   15.0380   24.6414 C   0  0  1  0  0  0  0  0  0  0  0  0
    5.0521   15.0540   23.1067 C   0  0  0  0  0  0  0  0  0  0  0  0
    6.2697   15.4487   22.4220 N   0  0  0  0  0  0  0  0  0  0  0  0
    7.2130   14.5590   21.9849 C   0  0  0  0  0  0  0  0  0  0  0  0
    7.0429   13.3403   22.0400 O   0  0  0  0  0  0  0  0  0  0  0  0
    8.4909   15.1860   21.4022 C   0  0  0  0  0  0  0  0  0  0  0  0
    8.4307   16.6562   21.3619 N   0  0  0  0  0  0  0  0  0  0  0  0
    3.8708   14.9701   25.3514 C   0  0  0  0  0  0  0  0  0  0  0  0
    3.0718   16.1215   25.4009 C   0  0  0  0  0  0  0  0  0  0  0  0
    1.8296   16.1140   26.0359 C   0  0  0  0  0  0  0  0  0  0  0  0
    1.3722   14.9616   26.6839 C   0  0  0  0  0  0  0  0  0  0  0  0
    0.1417   14.9466   27.3565 C   0  0  0  0  0  0  0  0  0  0  0  0
   -0.2775   13.8060   28.0391 C   0  0  0  0  0  0  0  0  0  0  0  0
    0.5278   12.6710   28.0619 C   0  0  0  0  0  0  0  0  0  0  0  0
    1.7458   12.6663   27.3840 C   0  0  0  0  0  0  0  0  0  0  0  0
    2.1774   13.8007   26.6793 C   0  0  0  0  0  0  0  0  0  0  0  0
    3.4001   13.8107   25.9857 C   0  0  0  0  0  0  0  0  0  0  0  0
  1  2  1  0
  2  3  2  0
  3  4  1  0
  4  5  1  0
  4  6  1  0
  6  7  1  0
  6  8  2  0
  8  9  1  0
  9 10  1  0
 10 11  2  0
 10 12  1  0
 12 13  1  0
 13 14  1  6
 14 15  1  0
 15 16  1  0
 16 17  2  0
 16 18  1  0
 18 19  1  0
 13 20  1  0
 20 21  2  0
 21 22  1  0
 22 23  2  0
 23 24  1  0
 24 25  2  0
 25 26  1  0
 26 27  2  0
 27 28  1  0
 28 29  2  0
  8  2  1  0
 29 20  1  0
 28 23  1  0
M  END
>  <Crystalforms alias>  (6) 
nan

>  <original ID>  (6) 
DQWUNIXDDNPLQU-FQEVSTJZSA-N

>  <alias>  (6) 
None

>  <distance_score>  (6) 
nan

>  <CanonSites upload name>  (6) 
nan

>  <CanonSites alias>  (6) 
nan

>  <ConformerSites alias>  (6) 
nan

>  <observation_longname>  (6) 
nan

>  <CrystalformSites alias>  (6) 
nan

>  <tags>  (6) 
['Syndirella scaffold']

>  <ref_mols>  (6) 
A1346a

>  <ref_pdb>  (6) 
A1346a

>  <Quatassemblies upload name>  (6) 
nan

>  <inchikey>  (6) 
DQWUNIXDDNPLQU-FQEVSTJZSA-N

>  <Experiment code>  (6) 
nan

>  <Quatassemblies alias>  (6) 
nan

>  <Crystalforms upload name>  (6) 
nan

>  <Centroid res>  (6) 
nan

>  <ConformerSites upload name>  (6) 
nan

>  <energy_score>  (6) 
nan

>  <original SMILES>  (6) 
Cc1nn(C)c(C)c1CC(=O)N[C@@H](CNC(=O)CN)c1ccc2ccccc2c1

>  <exports>  (6) 
nan

>  <CrystalformSites upload name>  (6) 
nan

>  <name>  (6) 
DQWUNIXDDNPLQU-FQEVSTJZSA-N

>  <HIPPO ID>  (6) 
168

$$$$
YOZGXEFFSUYIHZ-UHFFFAOYSA-N
     RDKit          3D

 15 15  0  0  0  0  0  0  0  0999 V2000
   11.8089   16.6236   22.6298 N   0  0  0  0  0  0  0  0  0  0  0  0
   11.8820   15.4738   22.5043 C   0  0  0  0  0  0  0  0  0  0  0  0
   11.9108   14.0267   22.3520 C   0  0  0  0  0  0  0  0  0  0  0  0
   11.0159   13.4094   23.3816 C   0  0  0  0  0  0  0  0  0  0  0  0
   10.9521   13.8380   24.5356 O   0  0  0  0  0  0  0  0  0  0  0  0
   10.3001   12.3035   22.9536 N   0  0  0  0  0  0  0  0  0  0  0  0
    9.2355   11.8331   23.7325 C   0  0  0  0  0  0  0  0  0  0  0  0
    8.9696   10.4804   23.8666 C   0  0  0  0  0  0  0  0  0  0  0  0
    7.9506   10.0941   24.7428 C   0  0  0  0  0  0  0  0  0  0  0  0
    7.1943   11.0781   25.3947 C   0  0  0  0  0  0  0  0  0  0  0  0
    6.0480   10.8317   26.3313 C   0  0  0  0  0  0  0  0  0  0  0  0
    5.6961    9.5561   26.6110 N   0  0  0  0  0  0  0  0  0  0  0  0
    5.4063   11.7301   26.8666 O   0  0  0  0  0  0  0  0  0  0  0  0
    7.4221   12.3894   25.2244 N   0  0  0  0  0  0  0  0  0  0  0  0
    8.4229   12.7366   24.4123 C   0  0  0  0  0  0  0  0  0  0  0  0
  1  2  3  0
  2  3  1  0
  3  4  1  0
  4  5  2  0
  4  6  1  0
  6  7  1  0
  7  8  2  0
  8  9  1  0
  9 10  2  0
 10 11  1  0
 11 12  1  0
 11 13  2  0
 10 14  1  0
 14 15  2  0
 15  7  1  0
M  END
>  <Crystalforms alias>  (7) 
nan

>  <original ID>  (7) 
YOZGXEFFSUYIHZ-UHFFFAOYSA-N

>  <alias>  (7) 
None

>  <distance_score>  (7) 
nan

>  <CanonSites upload name>  (7) 
nan

>  <CanonSites alias>  (7) 
nan

>  <ConformerSites alias>  (7) 
nan

>  <observation_longname>  (7) 
nan

>  <CrystalformSites alias>  (7) 
nan

>  <tags>  (7) 
['Syndirella scaffold']

>  <ref_mols>  (7) 
A0556a,A0310a

>  <ref_pdb>  (7) 
A0310a

>  <Quatassemblies upload name>  (7) 
nan

>  <inchikey>  (7) 
YOZGXEFFSUYIHZ-UHFFFAOYSA-N

>  <Experiment code>  (7) 
nan

>  <Quatassemblies alias>  (7) 
nan

>  <Crystalforms upload name>  (7) 
nan

>  <Centroid res>  (7) 
nan

>  <ConformerSites upload name>  (7) 
nan

>  <energy_score>  (7) 
nan

>  <original SMILES>  (7) 
N#CCC(=O)Nc1ccc(C(N)=O)nc1

>  <exports>  (7) 
nan

>  <CrystalformSites upload name>  (7) 
nan

>  <name>  (7) 
YOZGXEFFSUYIHZ-UHFFFAOYSA-N

>  <HIPPO ID>  (7) 
197

$$$$
BKBFLODZEQEWBQ-FQEVSTJZSA-N
     RDKit          3D

 29 31  0  0  0  0  0  0  0  0999 V2000
    6.0003   10.2873   27.0183 C   0  0  0  0  0  0  0  0  0  0  0  0
    7.0839   10.5670   26.0442 C   0  0  0  0  0  0  0  0  0  0  0  0
    7.5141    9.5962   25.2376 N   0  0  0  0  0  0  0  0  0  0  0  0
    8.4586   10.1782   24.4739 N   0  0  0  0  0  0  0  0  0  0  0  0
    9.1538    9.3853   23.4861 C   0  0  0  0  0  0  0  0  0  0  0  0
    8.6619   11.4977   24.7874 C   0  0  0  0  0  0  0  0  0  0  0  0
    9.6398   12.3677   24.0856 C   0  0  0  0  0  0  0  0  0  0  0  0
    7.8135   11.7679   25.8488 C   0  0  0  0  0  0  0  0  0  0  0  0
    7.7398   13.0117   26.6575 C   0  0  0  0  0  0  0  0  0  0  0  0
    7.0009   14.1962   26.0930 C   0  0  0  0  0  0  0  0  0  0  0  0
    7.1844   15.2994   26.6125 O   0  0  0  0  0  0  0  0  0  0  0  0
    6.1359   13.9910   25.0546 N   0  0  0  0  0  0  0  0  0  0  0  0
    5.2281   15.0419   24.6051 C   0  0  1  0  0  0  0  0  0  0  0  0
    5.0718   15.0583   23.0677 C   0  0  0  0  0  0  0  0  0  0  0  0
    6.3013   15.4477   22.3922 N   0  0  0  0  0  0  0  0  0  0  0  0
    7.2494   14.5478   21.9881 C   0  0  0  0  0  0  0  0  0  0  0  0
    7.0597   13.3314   22.0849 O   0  0  0  0  0  0  0  0  0  0  0  0
    8.5625   15.0942   21.4446 C   0  0  0  0  0  0  0  0  0  0  0  0
    8.5252   16.8354   21.1384 Cl  0  0  0  0  0  0  0  0  0  0  0  0
    3.8807   14.9767   25.3152 C   0  0  0  0  0  0  0  0  0  0  0  0
    3.0861   16.1306   25.3695 C   0  0  0  0  0  0  0  0  0  0  0  0
    1.8459   16.1274   26.0091 C   0  0  0  0  0  0  0  0  0  0  0  0
    1.3861   14.9766   26.6582 C   0  0  0  0  0  0  0  0  0  0  0  0
    0.1577   14.9659   27.3350 C   0  0  0  0  0  0  0  0  0  0  0  0
   -0.2635   13.8269   28.0188 C   0  0  0  0  0  0  0  0  0  0  0  0
    0.5381   12.6893   28.0392 C   0  0  0  0  0  0  0  0  0  0  0  0
    1.7539   12.6807   27.3572 C   0  0  0  0  0  0  0  0  0  0  0  0
    2.1870   13.8131   26.6501 C   0  0  0  0  0  0  0  0  0  0  0  0
    3.4071   13.8190   25.9510 C   0  0  0  0  0  0  0  0  0  0  0  0
  1  2  1  0
  2  3  2  0
  3  4  1  0
  4  5  1  0
  4  6  1  0
  6  7  1  0
  6  8  2  0
  8  9  1  0
  9 10  1  0
 10 11  2  0
 10 12  1  0
 12 13  1  0
 13 14  1  6
 14 15  1  0
 15 16  1  0
 16 17  2  0
 16 18  1  0
 18 19  1  0
 13 20  1  0
 20 21  2  0
 21 22  1  0
 22 23  2  0
 23 24  1  0
 24 25  2  0
 25 26  1  0
 26 27  2  0
 27 28  1  0
 28 29  2  0
  8  2  1  0
 29 20  1  0
 28 23  1  0
M  END
>  <Crystalforms alias>  (8) 
nan

>  <original ID>  (8) 
BKBFLODZEQEWBQ-FQEVSTJZSA-N

>  <alias>  (8) 
None

>  <distance_score>  (8) 
nan

>  <CanonSites upload name>  (8) 
nan

>  <CanonSites alias>  (8) 
nan

>  <ConformerSites alias>  (8) 
nan

>  <observation_longname>  (8) 
nan

>  <CrystalformSites alias>  (8) 
nan

>  <tags>  (8) 
['Syndirella scaffold']

>  <ref_mols>  (8) 
A1346a

>  <ref_pdb>  (8) 
A1346a

>  <Quatassemblies upload name>  (8) 
nan

>  <inchikey>  (8) 
BKBFLODZEQEWBQ-FQEVSTJZSA-N

>  <Experiment code>  (8) 
nan

>  <Quatassemblies alias>  (8) 
nan

>  <Crystalforms upload name>  (8) 
nan

>  <Centroid res>  (8) 
nan

>  <ConformerSites upload name>  (8) 
nan

>  <energy_score>  (8) 
nan

>  <original SMILES>  (8) 
Cc1nn(C)c(C)c1CC(=O)N[C@@H](CNC(=O)CCl)c1ccc2ccccc2c1

>  <exports>  (8) 
nan

>  <CrystalformSites upload name>  (8) 
nan

>  <name>  (8) 
BKBFLODZEQEWBQ-FQEVSTJZSA-N

>  <HIPPO ID>  (8) 
214

$$$$
NZVJBVJDSSUPIL-ZCFIWIBFSA-N
     RDKit          3D

 18 18  0  0  0  0  0  0  0  0999 V2000
    9.1742    9.2503   23.1545 C   0  0  0  0  0  0  0  0  0  0  0  0
    8.8899   10.6044   23.4864 O   0  0  0  0  0  0  0  0  0  0  0  0
    7.8426   10.7639   24.3161 C   0  0  0  0  0  0  0  0  0  0  0  0
    6.9980    9.8311   24.9217 C   0  0  0  0  0  0  0  0  0  0  0  0
    6.1005   10.5653   25.6560 C   0  0  0  0  0  0  0  0  0  0  0  0
    5.0259   10.0916   26.3887 N   0  0  0  0  0  0  0  0  0  0  0  0
    4.6981   10.6234   27.6218 C   0  0  0  0  0  0  0  0  0  0  0  0
    5.4036   11.3984   28.2581 O   0  0  0  0  0  0  0  0  0  0  0  0
    3.3426   10.1460   28.1053 C   0  0  0  0  0  0  0  0  0  0  0  0
    2.9951   10.4971   29.5587 C   0  0  1  0  0  0  0  0  0  0  0  0
    2.9527   12.0049   29.8272 C   0  0  0  0  0  0  0  0  0  0  0  0
    1.6294    9.9059   29.8804 C   0  0  0  0  0  0  0  0  0  0  0  0
    0.6611   10.4806   29.1319 F   0  0  0  0  0  0  0  0  0  0  0  0
    1.5945    8.5778   29.6297 F   0  0  0  0  0  0  0  0  0  0  0  0
    1.3103   10.0805   31.1797 F   0  0  0  0  0  0  0  0  0  0  0  0
    6.4458   11.8831   25.4316 N   0  0  0  0  0  0  0  0  0  0  0  0
    5.7222   13.0772   25.7995 C   0  0  0  0  0  0  0  0  0  0  0  0
    7.5309   12.0174   24.6284 N   0  0  0  0  0  0  0  0  0  0  0  0
  1  2  1  0
  2  3  1  0
  3  4  1  0
  4  5  2  0
  5  6  1  0
  6  7  1  0
  7  8  2  0
  7  9  1  0
  9 10  1  0
 10 11  1  6
 10 12  1  0
 12 13  1  0
 12 14  1  0
 12 15  1  0
  5 16  1  0
 16 17  1  0
 16 18  1  0
 18  3  2  0
M  END
>  <Crystalforms alias>  (9) 
nan

>  <original ID>  (9) 
NZVJBVJDSSUPIL-ZCFIWIBFSA-N

>  <alias>  (9) 
None

>  <distance_score>  (9) 
nan

>  <CanonSites upload name>  (9) 
nan

>  <CanonSites alias>  (9) 
nan

>  <ConformerSites alias>  (9) 
nan

>  <observation_longname>  (9) 
nan

>  <CrystalformSites alias>  (9) 
nan

>  <tags>  (9) 
['Syndirella scaffold']

>  <ref_mols>  (9) 
A1445a

>  <ref_pdb>  (9) 
A1445a

>  <Quatassemblies upload name>  (9) 
nan

>  <inchikey>  (9) 
NZVJBVJDSSUPIL-ZCFIWIBFSA-N

>  <Experiment code>  (9) 
nan

>  <Quatassemblies alias>  (9) 
nan

>  <Crystalforms upload name>  (9) 
nan

>  <Centroid res>  (9) 
nan

>  <ConformerSites upload name>  (9) 
nan

>  <energy_score>  (9) 
nan

>  <original SMILES>  (9) 
COc1cc(NC(=O)C[C@@H](C)C(F)(F)F)n(C)n1

>  <exports>  (9) 
nan

>  <CrystalformSites upload name>  (9) 
nan

>  <name>  (9) 
NZVJBVJDSSUPIL-ZCFIWIBFSA-N

>  <HIPPO ID>  (9) 
215

$$$$
VINVRWFILPAKSR-ZETCQYMHSA-N
     RDKit          3D

 14 14  0  0  0  0  0  0  0  0999 V2000
    6.2471   11.7392   25.7650 C   0  0  0  0  0  0  0  0  0  0  0  0
    7.5154   11.3540   25.2545 O   0  0  0  0  0  0  0  0  0  0  0  0
    8.3094   12.4782   24.9041 C   0  0  0  0  0  0  0  0  0  0  0  0
    7.9634   13.2506   23.6054 C   0  0  0  0  0  0  0  0  0  0  0  0
    7.0779   12.8505   22.8458 O   0  0  0  0  0  0  0  0  0  0  0  0
    8.7023   14.4117   23.3535 N   0  0  0  0  0  0  0  0  0  0  0  0
    9.8662   14.8143   24.1444 C   0  0  0  0  0  0  0  0  0  0  0  0
   11.1511   14.4695   23.4033 C   0  0  0  0  0  0  0  0  0  0  0  0
   11.1498   15.1755   22.0512 C   0  0  0  0  0  0  0  0  0  0  0  0
    9.9301   14.7105   21.2585 C   0  0  2  0  0  0  0  0  0  0  0  0
   10.0838   15.1209   19.8107 C   0  0  0  0  0  0  0  0  0  0  0  0
    9.5950   16.3169   19.4134 N   0  0  0  0  0  0  0  0  0  0  0  0
   10.7347   14.4332   19.0259 O   0  0  0  0  0  0  0  0  0  0  0  0
    8.6380   15.0389   22.0070 C   0  0  0  0  0  0  0  0  0  0  0  0
  1  2  1  0
  2  3  1  0
  3  4  1  0
  4  5  2  0
  4  6  1  0
  6  7  1  0
  7  8  1  0
  8  9  1  0
  9 10  1  0
 10 11  1  6
 11 12  1  0
 11 13  2  0
 10 14  1  0
 14  6  1  0
M  END
>  <Crystalforms alias>  (10) 
nan

>  <original ID>  (10) 
VINVRWFILPAKSR-ZETCQYMHSA-N

>  <alias>  (10) 
None

>  <distance_score>  (10) 
nan

>  <CanonSites upload name>  (10) 
nan

>  <CanonSites alias>  (10) 
nan

>  <ConformerSites alias>  (10) 
nan

>  <observation_longname>  (10) 
nan

>  <CrystalformSites alias>  (10) 
nan

>  <tags>  (10) 
['Syndirella scaffold']

>  <ref_mols>  (10) 


>  <ref_pdb>  (10) 


>  <Quatassemblies upload name>  (10) 
nan

>  <inchikey>  (10) 
VINVRWFILPAKSR-ZETCQYMHSA-N

>  <Experiment code>  (10) 
nan

>  <Quatassemblies alias>  (10) 
nan

>  <Crystalforms upload name>  (10) 
nan

>  <Centroid res>  (10) 
nan

>  <ConformerSites upload name>  (10) 
nan

>  <energy_score>  (10) 
nan

>  <original SMILES>  (10) 
COCC(=O)N1CCC[C@H](C(N)=O)C1

>  <exports>  (10) 
nan

>  <CrystalformSites upload name>  (10) 
nan

>  <name>  (10) 
VINVRWFILPAKSR-ZETCQYMHSA-N

>  <HIPPO ID>  (10) 
216

$$$$
XZJXCESWBMDSBO-UHFFFAOYSA-N
     RDKit          3D

 13 13  0  0  0  0  0  0  0  0999 V2000
    5.6348   11.9841   26.8887 C   0  0  0  0  0  0  0  0  0  0  0  0
    6.8779   12.2791   26.0735 C   0  0  0  0  0  0  0  0  0  0  0  0
    7.4485   11.0425   25.6678 O   0  0  0  0  0  0  0  0  0  0  0  0
    8.5413   11.1018   24.8525 C   0  0  0  0  0  0  0  0  0  0  0  0
    9.3029   12.2317   24.5622 C   0  0  0  0  0  0  0  0  0  0  0  0
   10.3776   12.1454   23.6686 C   0  0  0  0  0  0  0  0  0  0  0  0
   10.7005   10.9210   23.0784 C   0  0  0  0  0  0  0  0  0  0  0  0
   11.7583   10.7721   22.0497 C   0  0  0  0  0  0  0  0  0  0  0  0
   11.9065    9.6622   21.5378 O   0  0  0  0  0  0  0  0  0  0  0  0
   12.5784   11.9880   21.6267 C   0  0  0  0  0  0  0  0  0  0  0  0
   13.6510   11.6175   20.5939 C   0  0  0  0  0  0  0  0  0  0  0  0
    9.9661    9.7816   23.4103 C   0  0  0  0  0  0  0  0  0  0  0  0
    8.8917    9.8815   24.2827 C   0  0  0  0  0  0  0  0  0  0  0  0
  1  2  1  0
  2  3  1  0
  3  4  1  0
  4  5  2  0
  5  6  1  0
  6  7  2  0
  7  8  1  0
  8  9  2  0
  8 10  1  0
 10 11  1  0
  7 12  1  0
 12 13  2  0
 13  4  1  0
M  END
>  <Crystalforms alias>  (11) 
nan

>  <original ID>  (11) 
XZJXCESWBMDSBO-UHFFFAOYSA-N

>  <alias>  (11) 
None

>  <distance_score>  (11) 
nan

>  <CanonSites upload name>  (11) 
nan

>  <CanonSites alias>  (11) 
nan

>  <ConformerSites alias>  (11) 
nan

>  <observation_longname>  (11) 
nan

>  <CrystalformSites alias>  (11) 
nan

>  <tags>  (11) 
['Syndirella scaffold']

>  <ref_mols>  (11) 


>  <ref_pdb>  (11) 


>  <Quatassemblies upload name>  (11) 
nan

>  <inchikey>  (11) 
XZJXCESWBMDSBO-UHFFFAOYSA-N

>  <Experiment code>  (11) 
nan

>  <Quatassemblies alias>  (11) 
nan

>  <Crystalforms upload name>  (11) 
nan

>  <Centroid res>  (11) 
nan

>  <ConformerSites upload name>  (11) 
nan

>  <energy_score>  (11) 
nan

>  <original SMILES>  (11) 
CCOc1ccc(C(=O)CC)cc1

>  <exports>  (11) 
nan

>  <CrystalformSites upload name>  (11) 
nan

>  <name>  (11) 
XZJXCESWBMDSBO-UHFFFAOYSA-N

>  <HIPPO ID>  (11) 
217

$$$$
ZYLJLWLQPBRDLN-UHFFFAOYSA-N
     RDKit          3D

 13 13  0  0  0  0  0  0  0  0999 V2000
    5.5685   11.9785   26.9226 C   0  0  0  0  0  0  0  0  0  0  0  0
    6.8210   12.2695   26.1217 C   0  0  0  0  0  0  0  0  0  0  0  0
    7.3820   11.0315   25.7068 O   0  0  0  0  0  0  0  0  0  0  0  0
    8.4803   11.0910   24.8998 C   0  0  0  0  0  0  0  0  0  0  0  0
    9.2485   12.2195   24.6288 C   0  0  0  0  0  0  0  0  0  0  0  0
   10.3247   12.1380   23.7399 C   0  0  0  0  0  0  0  0  0  0  0  0
   10.6432   10.9182   23.1347 C   0  0  0  0  0  0  0  0  0  0  0  0
   11.7040   10.7816   22.1095 C   0  0  0  0  0  0  0  0  0  0  0  0
   11.8744    9.6690   21.6111 O   0  0  0  0  0  0  0  0  0  0  0  0
   12.4762   12.0254   21.7073 C   0  0  0  0  0  0  0  0  0  0  0  0
   13.7049   11.6008   20.4883 Cl  0  0  0  0  0  0  0  0  0  0  0  0
    9.9051    9.7782   23.4500 C   0  0  0  0  0  0  0  0  0  0  0  0
    8.8287    9.8754   24.3189 C   0  0  0  0  0  0  0  0  0  0  0  0
  1  2  1  0
  2  3  1  0
  3  4  1  0
  4  5  2  0
  5  6  1  0
  6  7  2  0
  7  8  1  0
  8  9  2  0
  8 10  1  0
 10 11  1  0
  7 12  1  0
 12 13  2  0
 13  4  1  0
M  END
>  <Crystalforms alias>  (12) 
nan

>  <original ID>  (12) 
ZYLJLWLQPBRDLN-UHFFFAOYSA-N

>  <alias>  (12) 
None

>  <distance_score>  (12) 
nan

>  <CanonSites upload name>  (12) 
nan

>  <CanonSites alias>  (12) 
nan

>  <ConformerSites alias>  (12) 
nan

>  <observation_longname>  (12) 
nan

>  <CrystalformSites alias>  (12) 
nan

>  <tags>  (12) 
['Syndirella scaffold']

>  <ref_mols>  (12) 


>  <ref_pdb>  (12) 


>  <Quatassemblies upload name>  (12) 
nan

>  <inchikey>  (12) 
ZYLJLWLQPBRDLN-UHFFFAOYSA-N

>  <Experiment code>  (12) 
nan

>  <Quatassemblies alias>  (12) 
nan

>  <Crystalforms upload name>  (12) 
nan

>  <Centroid res>  (12) 
nan

>  <ConformerSites upload name>  (12) 
nan

>  <energy_score>  (12) 
nan

>  <original SMILES>  (12) 
CCOc1ccc(C(=O)CCl)cc1

>  <exports>  (12) 
nan

>  <CrystalformSites upload name>  (12) 
nan

>  <name>  (12) 
ZYLJLWLQPBRDLN-UHFFFAOYSA-N

>  <HIPPO ID>  (12) 
221

$$$$
YJFNFQHMQJCPRG-UHFFFAOYSA-N
     RDKit          3D

 12 12  0  0  0  0  0  0  0  0999 V2000
    5.5274   11.9220   26.9600 C   0  0  0  0  0  0  0  0  0  0  0  0
    6.7849   12.2259   26.1729 C   0  0  0  0  0  0  0  0  0  0  0  0
    7.3393   10.9951   25.7231 O   0  0  0  0  0  0  0  0  0  0  0  0
    8.4476   11.0748   24.9304 C   0  0  0  0  0  0  0  0  0  0  0  0
    9.2084   12.2159   24.7014 C   0  0  0  0  0  0  0  0  0  0  0  0
   10.2893   12.1668   23.8214 C   0  0  0  0  0  0  0  0  0  0  0  0
   10.6218   10.9684   23.1813 C   0  0  0  0  0  0  0  0  0  0  0  0
   11.6903   10.8968   22.1613 C   0  0  0  0  0  0  0  0  0  0  0  0
   12.4143   12.1711   21.8024 C   0  0  0  0  0  0  0  0  0  0  0  0
   11.9345    9.8244   21.6102 O   0  0  0  0  0  0  0  0  0  0  0  0
    9.8981    9.8116   23.4549 C   0  0  0  0  0  0  0  0  0  0  0  0
    8.8141    9.8765   24.3198 C   0  0  0  0  0  0  0  0  0  0  0  0
  1  2  1  0
  2  3  1  0
  3  4  1  0
  4  5  2  0
  5  6  1  0
  6  7  2  0
  7  8  1  0
  8  9  1  0
  8 10  2  0
  7 11  1  0
 11 12  2  0
 12  4  1  0
M  END
>  <Crystalforms alias>  (13) 
nan

>  <original ID>  (13) 
YJFNFQHMQJCPRG-UHFFFAOYSA-N

>  <alias>  (13) 
None

>  <distance_score>  (13) 
nan

>  <CanonSites upload name>  (13) 
nan

>  <CanonSites alias>  (13) 
nan

>  <ConformerSites alias>  (13) 
nan

>  <observation_longname>  (13) 
nan

>  <CrystalformSites alias>  (13) 
nan

>  <tags>  (13) 
['Syndirella scaffold']

>  <ref_mols>  (13) 


>  <ref_pdb>  (13) 


>  <Quatassemblies upload name>  (13) 
nan

>  <inchikey>  (13) 
YJFNFQHMQJCPRG-UHFFFAOYSA-N

>  <Experiment code>  (13) 
nan

>  <Quatassemblies alias>  (13) 
nan

>  <Crystalforms upload name>  (13) 
nan

>  <Centroid res>  (13) 
nan

>  <ConformerSites upload name>  (13) 
nan

>  <energy_score>  (13) 
nan

>  <original SMILES>  (13) 
CCOc1ccc(C(C)=O)cc1

>  <exports>  (13) 
nan

>  <CrystalformSites upload name>  (13) 
nan

>  <name>  (13) 
YJFNFQHMQJCPRG-UHFFFAOYSA-N

>  <HIPPO ID>  (13) 
227

$$$$
WECHHDJTILFYQT-UHFFFAOYSA-N
     RDKit          3D

 13 13  0  0  0  0  0  0  0  0999 V2000
    5.6240   11.8077   27.3948 C   0  0  0  0  0  0  0  0  0  0  0  0
    7.0272   11.9448   26.8635 C   0  0  0  0  0  0  0  0  0  0  0  0
    7.7689   12.8313   27.2785 O   0  0  0  0  0  0  0  0  0  0  0  0
    7.3572   10.9558   25.9581 N   0  0  0  0  0  0  0  0  0  0  0  0
    8.4935   10.9183   25.1333 C   0  0  0  0  0  0  0  0  0  0  0  0
    8.7287    9.7548   24.3966 C   0  0  0  0  0  0  0  0  0  0  0  0
    9.7960    9.6734   23.5005 C   0  0  0  0  0  0  0  0  0  0  0  0
   10.6225   10.7789   23.3124 C   0  0  0  0  0  0  0  0  0  0  0  0
   11.6708   10.7425   22.2636 C   0  0  0  0  0  0  0  0  0  0  0  0
   12.4073   12.0320   21.9441 C   0  0  0  0  0  0  0  0  0  0  0  0
   11.8771    9.6942   21.6536 O   0  0  0  0  0  0  0  0  0  0  0  0
   10.4028   11.9294   24.0656 C   0  0  0  0  0  0  0  0  0  0  0  0
    9.3513   11.9989   24.9761 C   0  0  0  0  0  0  0  0  0  0  0  0
  1  2  1  0
  2  3  2  0
  2  4  1  0
  4  5  1  0
  5  6  2  0
  6  7  1  0
  7  8  2  0
  8  9  1  0
  9 10  1  0
  9 11  2  0
  8 12  1  0
 12 13  2  0
 13  5  1  0
M  END
>  <Crystalforms alias>  (14) 
nan

>  <original ID>  (14) 
WECHHDJTILFYQT-UHFFFAOYSA-N

>  <alias>  (14) 
None

>  <distance_score>  (14) 
nan

>  <CanonSites upload name>  (14) 
nan

>  <CanonSites alias>  (14) 
nan

>  <ConformerSites alias>  (14) 
nan

>  <observation_longname>  (14) 
nan

>  <CrystalformSites alias>  (14) 
nan

>  <tags>  (14) 
['Syndirella scaffold']

>  <ref_mols>  (14) 


>  <ref_pdb>  (14) 


>  <Quatassemblies upload name>  (14) 
nan

>  <inchikey>  (14) 
WECHHDJTILFYQT-UHFFFAOYSA-N

>  <Experiment code>  (14) 
nan

>  <Quatassemblies alias>  (14) 
nan

>  <Crystalforms upload name>  (14) 
nan

>  <Centroid res>  (14) 
nan

>  <ConformerSites upload name>  (14) 
nan

>  <energy_score>  (14) 
nan

>  <original SMILES>  (14) 
CC(=O)Nc1ccc(C(C)=O)cc1

>  <exports>  (14) 
nan

>  <CrystalformSites upload name>  (14) 
nan

>  <name>  (14) 
WECHHDJTILFYQT-UHFFFAOYSA-N

>  <HIPPO ID>  (14) 
229

$$$$
SKLUWKYNZNXSLX-UHFFFAOYSA-N
     RDKit          3D

 12 12  0  0  0  0  0  0  0  0999 V2000
    5.7801   12.0703   27.3831 C   0  0  0  0  0  0  0  0  0  0  0  0
    7.1783   12.1199   26.8213 C   0  0  0  0  0  0  0  0  0  0  0  0
    7.9844   12.9583   27.2134 O   0  0  0  0  0  0  0  0  0  0  0  0
    7.4253   11.1007   25.9258 N   0  0  0  0  0  0  0  0  0  0  0  0
    8.5495   10.9489   25.0965 C   0  0  0  0  0  0  0  0  0  0  0  0
    8.6658    9.7427   24.4010 C   0  0  0  0  0  0  0  0  0  0  0  0
    9.7036    9.5297   23.4974 C   0  0  0  0  0  0  0  0  0  0  0  0
   10.6186   10.5498   23.2656 C   0  0  0  0  0  0  0  0  0  0  0  0
   11.6363   10.4007   22.2181 C   0  0  0  0  0  0  0  0  0  0  0  0
   11.7732    9.3558   21.5966 O   0  0  0  0  0  0  0  0  0  0  0  0
   10.5336   11.7490   23.9693 C   0  0  0  0  0  0  0  0  0  0  0  0
    9.5036   11.9432   24.8930 C   0  0  0  0  0  0  0  0  0  0  0  0
  1  2  1  0
  2  3  2  0
  2  4  1  0
  4  5  1  0
  5  6  2  0
  6  7  1  0
  7  8  2  0
  8  9  1  0
  9 10  2  0
  8 11  1  0
 11 12  2  0
 12  5  1  0
M  END
>  <Crystalforms alias>  (15) 
nan

>  <original ID>  (15) 
SKLUWKYNZNXSLX-UHFFFAOYSA-N

>  <alias>  (15) 
None

>  <distance_score>  (15) 
nan

>  <CanonSites upload name>  (15) 
nan

>  <CanonSites alias>  (15) 
nan

>  <ConformerSites alias>  (15) 
nan

>  <observation_longname>  (15) 
nan

>  <CrystalformSites alias>  (15) 
nan

>  <tags>  (15) 
['Syndirella scaffold']

>  <ref_mols>  (15) 


>  <ref_pdb>  (15) 


>  <Quatassemblies upload name>  (15) 
nan

>  <inchikey>  (15) 
SKLUWKYNZNXSLX-UHFFFAOYSA-N

>  <Experiment code>  (15) 
nan

>  <Quatassemblies alias>  (15) 
nan

>  <Crystalforms upload name>  (15) 
nan

>  <Centroid res>  (15) 
nan

>  <ConformerSites upload name>  (15) 
nan

>  <energy_score>  (15) 
nan

>  <original SMILES>  (15) 
CC(=O)Nc1ccc(C=O)cc1

>  <exports>  (15) 
nan

>  <CrystalformSites upload name>  (15) 
nan

>  <name>  (15) 
SKLUWKYNZNXSLX-UHFFFAOYSA-N

>  <HIPPO ID>  (15) 
230

$$$$
AOLHRJZGGWAHNY-UHFFFAOYSA-N
     RDKit          3D

 23 25  0  0  0  0  0  0  0  0999 V2000
    7.9666   11.7777   32.0986 C   0  0  0  0  0  0  0  0  0  0  0  0
    7.2748   11.4837   30.7963 C   0  0  0  0  0  0  0  0  0  0  0  0
    6.7508   10.2023   30.5717 C   0  0  0  0  0  0  0  0  0  0  0  0
    6.1239    9.8854   29.3653 C   0  0  0  0  0  0  0  0  0  0  0  0
    6.0033   10.8416   28.3539 C   0  0  0  0  0  0  0  0  0  0  0  0
    5.3502   10.4768   27.0424 C   0  0  0  0  0  0  0  0  0  0  0  0
    6.2890   10.0043   26.0464 N   0  0  0  0  0  0  0  0  0  0  0  0
    7.1490   10.8212   25.3507 C   0  0  0  0  0  0  0  0  0  0  0  0
    6.8849   12.1632   25.1584 C   0  0  0  0  0  0  0  0  0  0  0  0
    7.7992   12.9696   24.4971 C   0  0  0  0  0  0  0  0  0  0  0  0
    8.9875   12.4598   23.9915 C   0  0  0  0  0  0  0  0  0  0  0  0
    9.8985   13.3830   23.4784 N   0  0  0  0  0  0  0  0  0  0  0  0
   11.3386   13.1425   23.4970 C   0  0  0  0  0  0  0  0  0  0  0  0
   12.0521   14.5020   23.3912 C   0  0  0  0  0  0  0  0  0  0  0  0
   11.6840   15.2053   22.1858 N   0  0  0  0  0  0  0  0  0  0  0  0
   10.4350   15.0903   21.6359 C   0  0  0  0  0  0  0  0  0  0  0  0
   10.1301   15.7375   20.6346 O   0  0  0  0  0  0  0  0  0  0  0  0
    9.4434   14.0988   22.2559 C   0  0  0  0  0  0  0  0  0  0  0  0
    9.1195   11.0772   24.1290 C   0  0  0  0  0  0  0  0  0  0  0  0
    8.2419   10.2610   24.8006 N   0  0  0  0  0  0  0  0  0  0  0  0
    6.5048   12.1315   28.5893 C   0  0  0  0  0  0  0  0  0  0  0  0
    7.1571   12.4601   29.7900 C   0  0  0  0  0  0  0  0  0  0  0  0
    7.6917   13.8546   29.9761 C   0  0  0  0  0  0  0  0  0  0  0  0
  1  2  1  0
  2  3  2  0
  3  4  1  0
  4  5  2  0
  5  6  1  0
  6  7  1  0
  7  8  1  0
  8  9  2  0
  9 10  1  0
 10 11  2  0
 11 12  1  0
 12 13  1  0
 13 14  1  0
 14 15  1  0
 15 16  1  0
 16 17  2  0
 16 18  1  0
 11 19  1  0
 19 20  2  0
  5 21  1  0
 21 22  2  0
 22 23  1  0
 22  2  1  0
 20  8  1  0
 18 12  1  0
M  END
>  <Crystalforms alias>  (16) 
nan

>  <original ID>  (16) 
AOLHRJZGGWAHNY-UHFFFAOYSA-N

>  <alias>  (16) 
None

>  <distance_score>  (16) 
nan

>  <CanonSites upload name>  (16) 
nan

>  <CanonSites alias>  (16) 
nan

>  <ConformerSites alias>  (16) 
nan

>  <observation_longname>  (16) 
nan

>  <CrystalformSites alias>  (16) 
nan

>  <tags>  (16) 
['Syndirella scaffold']

>  <ref_mols>  (16) 


>  <ref_pdb>  (16) 


>  <Quatassemblies upload name>  (16) 
nan

>  <inchikey>  (16) 
AOLHRJZGGWAHNY-UHFFFAOYSA-N

>  <Experiment code>  (16) 
nan

>  <Quatassemblies alias>  (16) 
nan

>  <Crystalforms upload name>  (16) 
nan

>  <Centroid res>  (16) 
nan

>  <ConformerSites upload name>  (16) 
nan

>  <energy_score>  (16) 
nan

>  <original SMILES>  (16) 
Cc1ccc(CNc2ccc(N3CCNC(=O)C3)cn2)cc1C

>  <exports>  (16) 
nan

>  <CrystalformSites upload name>  (16) 
nan

>  <name>  (16) 
AOLHRJZGGWAHNY-UHFFFAOYSA-N

>  <HIPPO ID>  (16) 
235

$$$$
HOWRLYKLFLMWBY-GJZGRUSLSA-N
     RDKit          3D

 22 24  0  0  0  0  0  0  0  0999 V2000
    8.8157   14.6674   21.7399 O   0  0  0  0  0  0  0  0  0  0  0  0
    9.9847   14.6923   22.0744 C   0  0  0  0  0  0  0  0  0  0  0  0
   11.0128   15.1452   21.2805 N   0  0  0  0  0  0  0  0  0  0  0  0
   12.2881   14.9360   21.8880 C   0  0  0  0  0  0  0  0  0  0  0  0
   12.0064   13.9058   22.9805 C   0  0  0  0  0  0  0  0  0  0  0  0
   10.5947   14.2870   23.3889 C   0  0  2  0  0  0  0  0  0  0  0  0
    9.6509   13.5538   24.3246 C   0  0  0  0  0  0  0  0  0  0  0  0
    9.1574   14.2232   25.2454 O   0  0  0  0  0  0  0  0  0  0  0  0
    9.2826   12.2267   24.2071 N   0  0  0  0  0  0  0  0  0  0  0  0
    9.7641   11.3457   23.1783 C   0  0  0  0  0  0  0  0  0  0  0  0
    9.7354    9.8815   23.5347 C   0  0  0  0  0  0  0  0  0  0  0  0
    8.4767    9.4577   24.2567 C   0  0  0  0  0  0  0  0  0  0  0  0
    7.8560   10.4525   25.2465 C   0  0  2  0  0  0  0  0  0  0  0  0
    6.5246   10.0033   25.6715 N   0  0  0  0  0  0  0  0  0  0  0  0
    5.7269   10.9033   26.5010 C   0  0  0  0  0  0  0  0  0  0  0  0
    6.1908   11.0973   27.9229 C   0  0  0  0  0  0  0  0  0  0  0  0
    6.0735   10.0608   28.8623 C   0  0  0  0  0  0  0  0  0  0  0  0
    6.4765   10.2535   30.1862 C   0  0  0  0  0  0  0  0  0  0  0  0
    6.9957   11.4838   30.5867 C   0  0  0  0  0  0  0  0  0  0  0  0
    7.1024   12.5256   29.6674 C   0  0  0  0  0  0  0  0  0  0  0  0
    6.6987   12.3357   28.3441 C   0  0  0  0  0  0  0  0  0  0  0  0
    7.9470   11.8793   24.7155 C   0  0  0  0  0  0  0  0  0  0  0  0
  1  2  2  0
  2  3  1  0
  3  4  1  0
  4  5  1  0
  5  6  1  0
  6  7  1  6
  7  8  2  0
  7  9  1  0
  9 10  1  0
 10 11  1  0
 11 12  1  0
 12 13  1  0
 13 14  1  6
 14 15  1  0
 15 16  1  0
 16 17  2  0
 17 18  1  0
 18 19  2  0
 19 20  1  0
 20 21  2  0
 13 22  1  0
  6  2  1  0
 22  9  1  0
 21 16  1  0
M  END
>  <Crystalforms alias>  (17) 
nan

>  <original ID>  (17) 
HOWRLYKLFLMWBY-GJZGRUSLSA-N

>  <alias>  (17) 
None

>  <distance_score>  (17) 
nan

>  <CanonSites upload name>  (17) 
nan

>  <CanonSites alias>  (17) 
nan

>  <ConformerSites alias>  (17) 
nan

>  <observation_longname>  (17) 
nan

>  <CrystalformSites alias>  (17) 
nan

>  <tags>  (17) 
['Syndirella scaffold']

>  <ref_mols>  (17) 
A0528a,A0365a

>  <ref_pdb>  (17) 


>  <Quatassemblies upload name>  (17) 
nan

>  <inchikey>  (17) 
HOWRLYKLFLMWBY-GJZGRUSLSA-N

>  <Experiment code>  (17) 
nan

>  <Quatassemblies alias>  (17) 
nan

>  <Crystalforms upload name>  (17) 
nan

>  <Centroid res>  (17) 
nan

>  <ConformerSites upload name>  (17) 
nan

>  <energy_score>  (17) 
nan

>  <original SMILES>  (17) 
O=C1NCC[C@@H]1C(=O)N1CCC[C@H](NCc2ccccc2)C1

>  <exports>  (17) 
nan

>  <CrystalformSites upload name>  (17) 
nan

>  <name>  (17) 
HOWRLYKLFLMWBY-GJZGRUSLSA-N

>  <HIPPO ID>  (17) 
236

$$$$
HOWRLYKLFLMWBY-LSDHHAIUSA-N
     RDKit          3D

 22 24  0  0  0  0  0  0  0  0999 V2000
    8.9500   14.7346   21.4897 O   0  0  0  0  0  0  0  0  0  0  0  0
   10.0683   14.7533   21.9729 C   0  0  0  0  0  0  0  0  0  0  0  0
   10.9922   15.7315   21.7103 N   0  0  0  0  0  0  0  0  0  0  0  0
   12.1175   15.6669   22.5828 C   0  0  0  0  0  0  0  0  0  0  0  0
   11.8195   14.5558   23.5645 C   0  0  0  0  0  0  0  0  0  0  0  0
   10.6643   13.7764   22.9378 C   0  0  1  0  0  0  0  0  0  0  0  0
    9.6498   13.3572   23.9876 C   0  0  0  0  0  0  0  0  0  0  0  0
    9.1785   14.1861   24.7706 O   0  0  0  0  0  0  0  0  0  0  0  0
    9.2717   12.0222   24.0773 N   0  0  0  0  0  0  0  0  0  0  0  0
    9.7594   11.0351   23.1449 C   0  0  0  0  0  0  0  0  0  0  0  0
    9.7071    9.6222   23.6205 C   0  0  0  0  0  0  0  0  0  0  0  0
    8.4130    9.3021   24.3123 C   0  0  0  0  0  0  0  0  0  0  0  0
    7.8209   10.3607   25.2504 C   0  0  2  0  0  0  0  0  0  0  0  0
    6.4757    9.9749   25.6867 N   0  0  0  0  0  0  0  0  0  0  0  0
    5.7195   10.9188   26.5039 C   0  0  0  0  0  0  0  0  0  0  0  0
    6.1938   11.1096   27.9225 C   0  0  0  0  0  0  0  0  0  0  0  0
    6.0745   10.0747   28.8634 C   0  0  0  0  0  0  0  0  0  0  0  0
    6.4818   10.2679   30.1857 C   0  0  0  0  0  0  0  0  0  0  0  0
    7.0060   11.4972   30.5831 C   0  0  0  0  0  0  0  0  0  0  0  0
    7.1145   12.5376   29.6619 C   0  0  0  0  0  0  0  0  0  0  0  0
    6.7078   12.3468   28.3396 C   0  0  0  0  0  0  0  0  0  0  0  0
    7.9550   11.7588   24.6592 C   0  0  0  0  0  0  0  0  0  0  0  0
  1  2  2  0
  2  3  1  0
  3  4  1  0
  4  5  1  0
  5  6  1  0
  6  7  1  1
  7  8  2  0
  7  9  1  0
  9 10  1  0
 10 11  1  0
 11 12  1  0
 12 13  1  0
 13 14  1  6
 14 15  1  0
 15 16  1  0
 16 17  2  0
 17 18  1  0
 18 19  2  0
 19 20  1  0
 20 21  2  0
 13 22  1  0
  6  2  1  0
 22  9  1  0
 21 16  1  0
M  END
>  <Crystalforms alias>  (18) 
nan

>  <original ID>  (18) 
HOWRLYKLFLMWBY-LSDHHAIUSA-N

>  <alias>  (18) 
None

>  <distance_score>  (18) 
nan

>  <CanonSites upload name>  (18) 
nan

>  <CanonSites alias>  (18) 
nan

>  <ConformerSites alias>  (18) 
nan

>  <observation_longname>  (18) 
nan

>  <CrystalformSites alias>  (18) 
nan

>  <tags>  (18) 
['Syndirella scaffold']

>  <ref_mols>  (18) 


>  <ref_pdb>  (18) 


>  <Quatassemblies upload name>  (18) 
nan

>  <inchikey>  (18) 
HOWRLYKLFLMWBY-LSDHHAIUSA-N

>  <Experiment code>  (18) 
nan

>  <Quatassemblies alias>  (18) 
nan

>  <Crystalforms upload name>  (18) 
nan

>  <Centroid res>  (18) 
nan

>  <ConformerSites upload name>  (18) 
nan

>  <energy_score>  (18) 
nan

>  <original SMILES>  (18) 
O=C1NCC[C@H]1C(=O)N1CCC[C@H](NCc2ccccc2)C1

>  <exports>  (18) 
nan

>  <CrystalformSites upload name>  (18) 
nan

>  <name>  (18) 
HOWRLYKLFLMWBY-LSDHHAIUSA-N

>  <HIPPO ID>  (18) 
237

$$$$
HOWRLYKLFLMWBY-CABCVRRESA-N
     RDKit          3D

 22 24  0  0  0  0  0  0  0  0999 V2000
    9.1650   14.5896   21.3898 O   0  0  0  0  0  0  0  0  0  0  0  0
   10.2128   14.5893   22.0116 C   0  0  0  0  0  0  0  0  0  0  0  0
   11.3415   15.2548   21.5972 N   0  0  0  0  0  0  0  0  0  0  0  0
   12.3660   15.2488   22.5821 C   0  0  0  0  0  0  0  0  0  0  0  0
   12.0374   14.0174   23.3923 C   0  0  0  0  0  0  0  0  0  0  0  0
   10.4995   13.9995   23.3730 C   0  0  2  0  0  0  0  0  0  0  0  0
    9.9160   12.6373   23.6657 C   0  0  0  0  0  0  0  0  0  0  0  0
   10.6097   11.6286   23.6235 O   0  0  0  0  0  0  0  0  0  0  0  0
    8.6172   12.5571   24.1354 N   0  0  0  0  0  0  0  0  0  0  0  0
    7.6361   13.5077   23.6808 C   0  0  0  0  0  0  0  0  0  0  0  0
    6.4651   13.6611   24.6065 C   0  0  0  0  0  0  0  0  0  0  0  0
    6.6653   12.9957   25.9401 C   0  0  0  0  0  0  0  0  0  0  0  0
    7.1704   11.5419   25.8997 C   0  0  1  0  0  0  0  0  0  0  0  0
    6.1543   10.4956   26.0914 N   0  0  0  0  0  0  0  0  0  0  0  0
    5.2389   10.6968   27.2214 C   0  0  0  0  0  0  0  0  0  0  0  0
    5.8847   10.8812   28.5782 C   0  0  0  0  0  0  0  0  0  0  0  0
    6.1603    9.7680   29.3766 C   0  0  0  0  0  0  0  0  0  0  0  0
    6.7871    9.9178   30.6174 C   0  0  0  0  0  0  0  0  0  0  0  0
    7.1584   11.1806   31.0715 C   0  0  0  0  0  0  0  0  0  0  0  0
    6.8679   12.3007   30.3037 C   0  0  0  0  0  0  0  0  0  0  0  0
    6.2160   12.1513   29.0795 C   0  0  0  0  0  0  0  0  0  0  0  0
    8.0884   11.2935   24.6752 C   0  0  0  0  0  0  0  0  0  0  0  0
  1  2  2  0
  2  3  1  0
  3  4  1  0
  4  5  1  0
  5  6  1  0
  6  7  1  6
  7  8  2  0
  7  9  1  0
  9 10  1  0
 10 11  1  0
 11 12  1  0
 12 13  1  0
 13 14  1  6
 14 15  1  0
 15 16  1  0
 16 17  2  0
 17 18  1  0
 18 19  2  0
 19 20  1  0
 20 21  2  0
 13 22  1  0
  6  2  1  0
 22  9  1  0
 21 16  1  0
M  END
>  <Crystalforms alias>  (19) 
nan

>  <original ID>  (19) 
HOWRLYKLFLMWBY-CABCVRRESA-N

>  <alias>  (19) 
None

>  <distance_score>  (19) 
nan

>  <CanonSites upload name>  (19) 
nan

>  <CanonSites alias>  (19) 
nan

>  <ConformerSites alias>  (19) 
nan

>  <observation_longname>  (19) 
nan

>  <CrystalformSites alias>  (19) 
nan

>  <tags>  (19) 
['Syndirella scaffold']

>  <ref_mols>  (19) 


>  <ref_pdb>  (19) 


>  <Quatassemblies upload name>  (19) 
nan

>  <inchikey>  (19) 
HOWRLYKLFLMWBY-CABCVRRESA-N

>  <Experiment code>  (19) 
nan

>  <Quatassemblies alias>  (19) 
nan

>  <Crystalforms upload name>  (19) 
nan

>  <Centroid res>  (19) 
nan

>  <ConformerSites upload name>  (19) 
nan

>  <energy_score>  (19) 
nan

>  <original SMILES>  (19) 
O=C1NCC[C@@H]1C(=O)N1CCC[C@@H](NCc2ccccc2)C1

>  <exports>  (19) 
nan

>  <CrystalformSites upload name>  (19) 
nan

>  <name>  (19) 
HOWRLYKLFLMWBY-CABCVRRESA-N

>  <HIPPO ID>  (19) 
238

$$$$
HOWRLYKLFLMWBY-HUUCEWRRSA-N
     RDKit          3D

 22 24  0  0  0  0  0  0  0  0999 V2000
    9.4252   15.1169   21.1292 O   0  0  0  0  0  0  0  0  0  0  0  0
   10.2786   14.8026   21.9376 C   0  0  0  0  0  0  0  0  0  0  0  0
   11.3393   15.6210   22.2626 N   0  0  0  0  0  0  0  0  0  0  0  0
   12.2951   14.9578   23.0691 C   0  0  0  0  0  0  0  0  0  0  0  0
   11.5129   13.8603   23.7491 C   0  0  0  0  0  0  0  0  0  0  0  0
   10.4121   13.5276   22.7399 C   0  0  1  0  0  0  0  0  0  0  0  0
    9.0975   12.9943   23.2571 C   0  0  0  0  0  0  0  0  0  0  0  0
    8.0911   12.8722   22.5669 O   0  0  0  0  0  0  0  0  0  0  0  0
    9.0316   12.6371   24.6032 N   0  0  0  0  0  0  0  0  0  0  0  0
    8.5705   13.7964   25.3515 C   0  0  0  0  0  0  0  0  0  0  0  0
    7.0830   14.0377   25.2556 C   0  0  0  0  0  0  0  0  0  0  0  0
    6.2939   12.7494   25.3385 C   0  0  0  0  0  0  0  0  0  0  0  0
    7.1121   11.5705   25.8628 C   0  0  1  0  0  0  0  0  0  0  0  0
    6.2942   10.3788   26.0939 N   0  0  0  0  0  0  0  0  0  0  0  0
    5.2874   10.5368   27.1473 C   0  0  0  0  0  0  0  0  0  0  0  0
    5.8521   10.8539   28.5150 C   0  0  0  0  0  0  0  0  0  0  0  0
    6.1391    9.8206   29.4112 C   0  0  0  0  0  0  0  0  0  0  0  0
    6.7334   10.0942   30.6447 C   0  0  0  0  0  0  0  0  0  0  0  0
    7.0465   11.4061   30.9952 C   0  0  0  0  0  0  0  0  0  0  0  0
    6.7378   12.4492   30.1270 C   0  0  0  0  0  0  0  0  0  0  0  0
    6.1277   12.1758   28.9031 C   0  0  0  0  0  0  0  0  0  0  0  0
    8.2833   11.3718   24.8751 C   0  0  0  0  0  0  0  0  0  0  0  0
  1  2  2  0
  2  3  1  0
  3  4  1  0
  4  5  1  0
  5  6  1  0
  6  7  1  1
  7  8  2  0
  7  9  1  0
  9 10  1  0
 10 11  1  0
 11 12  1  0
 12 13  1  0
 13 14  1  6
 14 15  1  0
 15 16  1  0
 16 17  2  0
 17 18  1  0
 18 19  2  0
 19 20  1  0
 20 21  2  0
 13 22  1  0
  6  2  1  0
 22  9  1  0
 21 16  1  0
M  END
>  <Crystalforms alias>  (20) 
nan

>  <original ID>  (20) 
HOWRLYKLFLMWBY-HUUCEWRRSA-N

>  <alias>  (20) 
None

>  <distance_score>  (20) 
nan

>  <CanonSites upload name>  (20) 
nan

>  <CanonSites alias>  (20) 
nan

>  <ConformerSites alias>  (20) 
nan

>  <observation_longname>  (20) 
nan

>  <CrystalformSites alias>  (20) 
nan

>  <tags>  (20) 
['Syndirella scaffold']

>  <ref_mols>  (20) 
A0528a,A0365a

>  <ref_pdb>  (20) 


>  <Quatassemblies upload name>  (20) 
nan

>  <inchikey>  (20) 
HOWRLYKLFLMWBY-HUUCEWRRSA-N

>  <Experiment code>  (20) 
nan

>  <Quatassemblies alias>  (20) 
nan

>  <Crystalforms upload name>  (20) 
nan

>  <Centroid res>  (20) 
nan

>  <ConformerSites upload name>  (20) 
nan

>  <energy_score>  (20) 
nan

>  <original SMILES>  (20) 
O=C1NCC[C@H]1C(=O)N1CCC[C@@H](NCc2ccccc2)C1

>  <exports>  (20) 
nan

>  <CrystalformSites upload name>  (20) 
nan

>  <name>  (20) 
HOWRLYKLFLMWBY-HUUCEWRRSA-N

>  <HIPPO ID>  (20) 
239

$$$$
ZGAPODHVEGIIKR-UHFFFAOYSA-N
     RDKit          3D

 24 26  0  0  0  0  0  0  0  0999 V2000
    8.5144   14.7685   21.8601 O   0  0  0  0  0  0  0  0  0  0  0  0
    9.6114   14.3966   22.2382 C   0  0  0  0  0  0  0  0  0  0  0  0
   10.7708   15.1339   22.0080 N   0  0  0  0  0  0  0  0  0  0  0  0
   11.8309   14.6277   22.8247 C   0  0  0  0  0  0  0  0  0  0  0  0
   11.3856   13.1946   23.1013 C   0  0  0  0  0  0  0  0  0  0  0  0
    9.9520   13.2537   22.9870 N   0  0  0  0  0  0  0  0  0  0  0  0
    9.0531   12.3737   23.6416 C   0  0  0  0  0  0  0  0  0  0  0  0
    7.8964   12.9015   24.1997 C   0  0  0  0  0  0  0  0  0  0  0  0
    7.0618   12.1273   25.0115 C   0  0  0  0  0  0  0  0  0  0  0  0
    7.2933   10.7729   25.2358 C   0  0  0  0  0  0  0  0  0  0  0  0
    6.5464   10.0113   26.1136 N   0  0  0  0  0  0  0  0  0  0  0  0
    5.4597   10.5155   26.9350 C   0  0  0  0  0  0  0  0  0  0  0  0
    5.9876   10.9034   28.2976 C   0  0  0  0  0  0  0  0  0  0  0  0
    6.0798    9.9404   29.3114 C   0  0  0  0  0  0  0  0  0  0  0  0
    6.6904   10.2466   30.5289 C   0  0  0  0  0  0  0  0  0  0  0  0
    7.2150   11.5265   30.7595 C   0  0  0  0  0  0  0  0  0  0  0  0
    7.9797   11.8230   32.0246 C   0  0  0  0  0  0  0  0  0  0  0  0
    7.5905   11.0553   33.0790 F   0  0  0  0  0  0  0  0  0  0  0  0
    9.3145   11.5929   31.8677 F   0  0  0  0  0  0  0  0  0  0  0  0
    7.8676   13.1153   32.4341 F   0  0  0  0  0  0  0  0  0  0  0  0
    7.0843   12.5034   29.7627 C   0  0  0  0  0  0  0  0  0  0  0  0
    6.4725   12.1952   28.5458 C   0  0  0  0  0  0  0  0  0  0  0  0
    8.4019   10.2181   24.5882 C   0  0  0  0  0  0  0  0  0  0  0  0
    9.2878   11.0092   23.8247 C   0  0  0  0  0  0  0  0  0  0  0  0
  1  2  2  0
  2  3  1  0
  3  4  1  0
  4  5  1  0
  5  6  1  0
  6  7  1  0
  7  8  2  0
  8  9  1  0
  9 10  2  0
 10 11  1  0
 11 12  1  0
 12 13  1  0
 13 14  2  0
 14 15  1  0
 15 16  2  0
 16 17  1  0
 17 18  1  0
 17 19  1  0
 17 20  1  0
 16 21  1  0
 21 22  2  0
 10 23  1  0
 23 24  2  0
  6  2  1  0
 24  7  1  0
 22 13  1  0
M  END
>  <Crystalforms alias>  (21) 
nan

>  <original ID>  (21) 
ZGAPODHVEGIIKR-UHFFFAOYSA-N

>  <alias>  (21) 
None

>  <distance_score>  (21) 
nan

>  <CanonSites upload name>  (21) 
nan

>  <CanonSites alias>  (21) 
nan

>  <ConformerSites alias>  (21) 
nan

>  <observation_longname>  (21) 
nan

>  <CrystalformSites alias>  (21) 
nan

>  <tags>  (21) 
['Syndirella scaffold']

>  <ref_mols>  (21) 


>  <ref_pdb>  (21) 


>  <Quatassemblies upload name>  (21) 
nan

>  <inchikey>  (21) 
ZGAPODHVEGIIKR-UHFFFAOYSA-N

>  <Experiment code>  (21) 
nan

>  <Quatassemblies alias>  (21) 
nan

>  <Crystalforms upload name>  (21) 
nan

>  <Centroid res>  (21) 
nan

>  <ConformerSites upload name>  (21) 
nan

>  <energy_score>  (21) 
nan

>  <original SMILES>  (21) 
O=C1NCCN1c1ccc(NCc2ccc(C(F)(F)F)cc2)cc1

>  <exports>  (21) 
nan

>  <CrystalformSites upload name>  (21) 
nan

>  <name>  (21) 
ZGAPODHVEGIIKR-UHFFFAOYSA-N

>  <HIPPO ID>  (21) 
240

$$$$
KKHICEOOLIHEJQ-UHFFFAOYSA-N
     RDKit          3D

 21 23  0  0  0  0  0  0  0  0999 V2000
    8.5177   14.7731   21.8516 O   0  0  0  0  0  0  0  0  0  0  0  0
    9.6152   14.4015   22.2287 C   0  0  0  0  0  0  0  0  0  0  0  0
   10.7733   15.1419   22.0014 N   0  0  0  0  0  0  0  0  0  0  0  0
   11.8334   14.6358   22.8185 C   0  0  0  0  0  0  0  0  0  0  0  0
   11.3914   13.2009   23.0904 C   0  0  0  0  0  0  0  0  0  0  0  0
    9.9577   13.2570   22.9737 N   0  0  0  0  0  0  0  0  0  0  0  0
    9.0609   12.3744   23.6277 C   0  0  0  0  0  0  0  0  0  0  0  0
    7.9036   12.8994   24.1872 C   0  0  0  0  0  0  0  0  0  0  0  0
    7.0745   12.1240   25.0034 C   0  0  0  0  0  0  0  0  0  0  0  0
    7.3134   10.7714   25.2319 C   0  0  0  0  0  0  0  0  0  0  0  0
    6.5835   10.0112   26.1269 N   0  0  0  0  0  0  0  0  0  0  0  0
    5.4891   10.5129   26.9374 C   0  0  0  0  0  0  0  0  0  0  0  0
    5.9992   10.9122   28.3031 C   0  0  0  0  0  0  0  0  0  0  0  0
    6.0064    9.9810   29.3547 C   0  0  0  0  0  0  0  0  0  0  0  0
    6.5459   10.3133   30.6005 C   0  0  0  0  0  0  0  0  0  0  0  0
    7.0923   11.5786   30.8059 C   0  0  0  0  0  0  0  0  0  0  0  0
    7.0836   12.5041   29.7697 C   0  0  0  0  0  0  0  0  0  0  0  0
    7.6392   13.7084   29.9574 F   0  0  0  0  0  0  0  0  0  0  0  0
    6.5357   12.1883   28.5310 C   0  0  0  0  0  0  0  0  0  0  0  0
    8.4192   10.2181   24.5784 C   0  0  0  0  0  0  0  0  0  0  0  0
    9.2993   11.0107   23.8102 C   0  0  0  0  0  0  0  0  0  0  0  0
  1  2  2  0
  2  3  1  0
  3  4  1  0
  4  5  1  0
  5  6  1  0
  6  7  1  0
  7  8  2  0
  8  9  1  0
  9 10  2  0
 10 11  1  0
 11 12  1  0
 12 13  1  0
 13 14  2  0
 14 15  1  0
 15 16  2  0
 16 17  1  0
 17 18  1  0
 17 19  2  0
 10 20  1  0
 20 21  2  0
  6  2  1  0
 21  7  1  0
 19 13  1  0
M  END
>  <Crystalforms alias>  (22) 
nan

>  <original ID>  (22) 
KKHICEOOLIHEJQ-UHFFFAOYSA-N

>  <alias>  (22) 
None

>  <distance_score>  (22) 
nan

>  <CanonSites upload name>  (22) 
nan

>  <CanonSites alias>  (22) 
nan

>  <ConformerSites alias>  (22) 
nan

>  <observation_longname>  (22) 
nan

>  <CrystalformSites alias>  (22) 
nan

>  <tags>  (22) 
['Syndirella scaffold']

>  <ref_mols>  (22) 


>  <ref_pdb>  (22) 


>  <Quatassemblies upload name>  (22) 
nan

>  <inchikey>  (22) 
KKHICEOOLIHEJQ-UHFFFAOYSA-N

>  <Experiment code>  (22) 
nan

>  <Quatassemblies alias>  (22) 
nan

>  <Crystalforms upload name>  (22) 
nan

>  <Centroid res>  (22) 
nan

>  <ConformerSites upload name>  (22) 
nan

>  <energy_score>  (22) 
nan

>  <original SMILES>  (22) 
O=C1NCCN1c1ccc(NCc2cccc(F)c2)cc1

>  <exports>  (22) 
nan

>  <CrystalformSites upload name>  (22) 
nan

>  <name>  (22) 
KKHICEOOLIHEJQ-UHFFFAOYSA-N

>  <HIPPO ID>  (22) 
241

$$$$
AKBIFIUVGFTRED-UHFFFAOYSA-N
     RDKit          3D

 23 25  0  0  0  0  0  0  0  0999 V2000
    7.1101   14.6340   31.5784 C   0  0  0  0  0  0  0  0  0  0  0  0
    7.8467   14.1139   30.0073 S   0  0  0  0  0  0  0  0  0  0  0  0
    7.1304   12.4874   29.8410 C   0  0  0  0  0  0  0  0  0  0  0  0
    7.2455   11.5188   30.8399 C   0  0  0  0  0  0  0  0  0  0  0  0
    6.7144   10.2420   30.6469 C   0  0  0  0  0  0  0  0  0  0  0  0
    6.0860    9.9178   29.4441 C   0  0  0  0  0  0  0  0  0  0  0  0
    5.9764   10.8663   28.4205 C   0  0  0  0  0  0  0  0  0  0  0  0
    5.3456   10.4870   27.1005 C   0  0  0  0  0  0  0  0  0  0  0  0
    6.3108    9.9678   26.1626 N   0  0  0  0  0  0  0  0  0  0  0  0
    7.1762   10.7120   25.4058 C   0  0  0  0  0  0  0  0  0  0  0  0
    7.0154   12.0721   25.2312 C   0  0  0  0  0  0  0  0  0  0  0  0
    7.9262   12.8001   24.4793 C   0  0  0  0  0  0  0  0  0  0  0  0
    8.9909   12.1810   23.8398 C   0  0  0  0  0  0  0  0  0  0  0  0
    9.9287   12.9185   23.0825 N   0  0  0  0  0  0  0  0  0  0  0  0
   11.0787   13.3865   23.8859 C   0  0  0  0  0  0  0  0  0  0  0  0
   12.1198   14.0537   22.9763 C   0  0  0  0  0  0  0  0  0  0  0  0
   11.5850   15.1161   22.1589 N   0  0  0  0  0  0  0  0  0  0  0  0
   10.3607   14.9361   21.5591 C   0  0  0  0  0  0  0  0  0  0  0  0
   10.0570   15.5833   20.5579 O   0  0  0  0  0  0  0  0  0  0  0  0
    9.3493   14.0365   22.2767 C   0  0  0  0  0  0  0  0  0  0  0  0
    9.0519   10.7946   24.0247 C   0  0  0  0  0  0  0  0  0  0  0  0
    8.1851   10.0637   24.7966 N   0  0  0  0  0  0  0  0  0  0  0  0
    6.4921   12.1554   28.6409 C   0  0  0  0  0  0  0  0  0  0  0  0
  1  2  1  0
  2  3  1  0
  3  4  2  0
  4  5  1  0
  5  6  2  0
  6  7  1  0
  7  8  1  0
  8  9  1  0
  9 10  1  0
 10 11  2  0
 11 12  1  0
 12 13  2  0
 13 14  1  0
 14 15  1  0
 15 16  1  0
 16 17  1  0
 17 18  1  0
 18 19  2  0
 18 20  1  0
 13 21  1  0
 21 22  2  0
  7 23  2  0
 23  3  1  0
 22 10  1  0
 20 14  1  0
M  END
>  <Crystalforms alias>  (23) 
nan

>  <original ID>  (23) 
AKBIFIUVGFTRED-UHFFFAOYSA-N

>  <alias>  (23) 
None

>  <distance_score>  (23) 
nan

>  <CanonSites upload name>  (23) 
nan

>  <CanonSites alias>  (23) 
nan

>  <ConformerSites alias>  (23) 
nan

>  <observation_longname>  (23) 
nan

>  <CrystalformSites alias>  (23) 
nan

>  <tags>  (23) 
['Syndirella scaffold']

>  <ref_mols>  (23) 


>  <ref_pdb>  (23) 


>  <Quatassemblies upload name>  (23) 
nan

>  <inchikey>  (23) 
AKBIFIUVGFTRED-UHFFFAOYSA-N

>  <Experiment code>  (23) 
nan

>  <Quatassemblies alias>  (23) 
nan

>  <Crystalforms upload name>  (23) 
nan

>  <Centroid res>  (23) 
nan

>  <ConformerSites upload name>  (23) 
nan

>  <energy_score>  (23) 
nan

>  <original SMILES>  (23) 
CSc1cccc(CNc2ccc(N3CCNC(=O)C3)cn2)c1

>  <exports>  (23) 
nan

>  <CrystalformSites upload name>  (23) 
nan

>  <name>  (23) 
AKBIFIUVGFTRED-UHFFFAOYSA-N

>  <HIPPO ID>  (23) 
242

$$$$
VGTICCPOHXQQKL-JTQLQIEISA-N
     RDKit          3D

 22 24  0  0  0  0  0  0  0  0999 V2000
    9.0918    9.9948   23.6905 C   0  0  0  0  0  0  0  0  0  0  0  0
    8.2737   10.7001   24.6327 N   0  0  0  0  0  0  0  0  0  0  0  0
    7.7346    9.9453   25.5950 N   0  0  0  0  0  0  0  0  0  0  0  0
    7.0354   10.8014   26.3340 C   0  0  0  0  0  0  0  0  0  0  0  0
    6.2650   10.3539   27.5102 C   0  0  0  0  0  0  0  0  0  0  0  0
    4.9221    9.8593   27.0431 C   0  0  0  0  0  0  0  0  0  0  0  0
    4.1528    9.3361   28.2264 C   0  0  0  0  0  0  0  0  0  0  0  0
    3.9644   10.4041   29.1553 O   0  0  0  0  0  0  0  0  0  0  0  0
    5.1961   10.8888   29.6887 C   0  0  0  0  0  0  0  0  0  0  0  0
    6.0745   11.4407   28.5819 C   0  0  0  0  0  0  0  0  0  0  0  0
    7.1052   12.0933   25.8435 C   0  0  0  0  0  0  0  0  0  0  0  0
    7.9499   12.0221   24.7719 C   0  0  0  0  0  0  0  0  0  0  0  0
    8.3327   13.1934   24.0803 C   0  0  0  0  0  0  0  0  0  0  0  0
    8.2036   14.3227   24.5359 O   0  0  0  0  0  0  0  0  0  0  0  0
    8.8477   12.8809   22.8796 O   0  0  0  0  0  0  0  0  0  0  0  0
    9.3534   13.9874   22.1367 C   0  0  0  0  0  0  0  0  0  0  0  0
   10.6211   14.4980   22.7529 C   0  0  2  0  0  0  0  0  0  0  0  0
   11.5072   15.2703   21.8087 C   0  0  0  0  0  0  0  0  0  0  0  0
   12.7258   15.2992   22.5446 N   0  0  0  0  0  0  0  0  0  0  0  0
   12.7789   14.2911   23.4858 C   0  0  0  0  0  0  0  0  0  0  0  0
   13.6793   14.0697   24.2725 O   0  0  0  0  0  0  0  0  0  0  0  0
   11.5442   13.4625   23.3522 C   0  0  0  0  0  0  0  0  0  0  0  0
  1  2  1  0
  2  3  1  0
  3  4  2  0
  4  5  1  0
  5  6  1  0
  6  7  1  0
  7  8  1  0
  8  9  1  0
  9 10  1  0
  4 11  1  0
 11 12  2  0
 12 13  1  0
 13 14  2  0
 13 15  1  0
 15 16  1  0
 17 16  1  6
 17 18  1  0
 18 19  1  0
 19 20  1  0
 20 21  2  0
 20 22  1  0
 12  2  1  0
 22 17  1  0
 10  5  1  0
M  END
>  <Crystalforms alias>  (24) 
nan

>  <original ID>  (24) 
VGTICCPOHXQQKL-JTQLQIEISA-N

>  <alias>  (24) 
None

>  <distance_score>  (24) 
nan

>  <CanonSites upload name>  (24) 
nan

>  <CanonSites alias>  (24) 
nan

>  <ConformerSites alias>  (24) 
nan

>  <observation_longname>  (24) 
nan

>  <CrystalformSites alias>  (24) 
nan

>  <tags>  (24) 
['Syndirella scaffold']

>  <ref_mols>  (24) 
A0528a,A0365a

>  <ref_pdb>  (24) 


>  <Quatassemblies upload name>  (24) 
nan

>  <inchikey>  (24) 
VGTICCPOHXQQKL-JTQLQIEISA-N

>  <Experiment code>  (24) 
nan

>  <Quatassemblies alias>  (24) 
nan

>  <Crystalforms upload name>  (24) 
nan

>  <Centroid res>  (24) 
nan

>  <ConformerSites upload name>  (24) 
nan

>  <energy_score>  (24) 
nan

>  <original SMILES>  (24) 
Cn1nc(C2CCOCC2)cc1C(=O)OC[C@@H]1CNC(=O)C1

>  <exports>  (24) 
nan

>  <CrystalformSites upload name>  (24) 
nan

>  <name>  (24) 
VGTICCPOHXQQKL-JTQLQIEISA-N

>  <HIPPO ID>  (24) 
243

$$$$
VGTICCPOHXQQKL-SNVBAGLBSA-N
     RDKit          3D

 22 24  0  0  0  0  0  0  0  0999 V2000
    9.0104    9.9560   23.7668 C   0  0  0  0  0  0  0  0  0  0  0  0
    8.1594   10.6566   24.6832 N   0  0  0  0  0  0  0  0  0  0  0  0
    7.6189    9.9140   25.6567 N   0  0  0  0  0  0  0  0  0  0  0  0
    6.8851   10.7697   26.3650 C   0  0  0  0  0  0  0  0  0  0  0  0
    6.2242   10.3781   27.6397 C   0  0  0  0  0  0  0  0  0  0  0  0
    5.0286    9.4696   27.4163 C   0  0  0  0  0  0  0  0  0  0  0  0
    3.8273    9.9667   28.1800 C   0  0  0  0  0  0  0  0  0  0  0  0
    4.1774   10.1636   29.5415 O   0  0  0  0  0  0  0  0  0  0  0  0
    5.1646   11.1633   29.7660 C   0  0  0  0  0  0  0  0  0  0  0  0
    5.8901   11.6011   28.5123 C   0  0  0  0  0  0  0  0  0  0  0  0
    6.9164   12.0446   25.8143 C   0  0  0  0  0  0  0  0  0  0  0  0
    7.8336   11.9785   24.8028 C   0  0  0  0  0  0  0  0  0  0  0  0
    8.2951   13.1505   24.1586 C   0  0  0  0  0  0  0  0  0  0  0  0
    8.2406   14.2654   24.6639 O   0  0  0  0  0  0  0  0  0  0  0  0
    8.7749   12.8596   22.9368 O   0  0  0  0  0  0  0  0  0  0  0  0
    9.3099   13.9715   22.2204 C   0  0  0  0  0  0  0  0  0  0  0  0
   10.8031   13.9717   22.3775 C   0  0  1  0  0  0  0  0  0  0  0  0
   11.4852   15.1095   21.6527 C   0  0  0  0  0  0  0  0  0  0  0  0
   12.6901   15.2872   22.3980 N   0  0  0  0  0  0  0  0  0  0  0  0
   12.6746   14.5624   23.5724 C   0  0  0  0  0  0  0  0  0  0  0  0
   13.6147   14.3000   24.2973 O   0  0  0  0  0  0  0  0  0  0  0  0
   11.2861   14.0925   23.8120 C   0  0  0  0  0  0  0  0  0  0  0  0
  1  2  1  0
  2  3  1  0
  3  4  2  0
  4  5  1  0
  5  6  1  0
  6  7  1  0
  7  8  1  0
  8  9  1  0
  9 10  1  0
  4 11  1  0
 11 12  2  0
 12 13  1  0
 13 14  2  0
 13 15  1  0
 15 16  1  0
 17 16  1  1
 17 18  1  0
 18 19  1  0
 19 20  1  0
 20 21  2  0
 20 22  1  0
 12  2  1  0
 22 17  1  0
 10  5  1  0
M  END
>  <Crystalforms alias>  (25) 
nan

>  <original ID>  (25) 
VGTICCPOHXQQKL-SNVBAGLBSA-N

>  <alias>  (25) 
None

>  <distance_score>  (25) 
nan

>  <CanonSites upload name>  (25) 
nan

>  <CanonSites alias>  (25) 
nan

>  <ConformerSites alias>  (25) 
nan

>  <observation_longname>  (25) 
nan

>  <CrystalformSites alias>  (25) 
nan

>  <tags>  (25) 
['Syndirella scaffold']

>  <ref_mols>  (25) 
A0528a,A0365a

>  <ref_pdb>  (25) 


>  <Quatassemblies upload name>  (25) 
nan

>  <inchikey>  (25) 
VGTICCPOHXQQKL-SNVBAGLBSA-N

>  <Experiment code>  (25) 
nan

>  <Quatassemblies alias>  (25) 
nan

>  <Crystalforms upload name>  (25) 
nan

>  <Centroid res>  (25) 
nan

>  <ConformerSites upload name>  (25) 
nan

>  <energy_score>  (25) 
nan

>  <original SMILES>  (25) 
Cn1nc(C2CCOCC2)cc1C(=O)OC[C@H]1CNC(=O)C1

>  <exports>  (25) 
nan

>  <CrystalformSites upload name>  (25) 
nan

>  <name>  (25) 
VGTICCPOHXQQKL-SNVBAGLBSA-N

>  <HIPPO ID>  (25) 
244

$$$$
XTQDUNSPBPDCKJ-UHFFFAOYSA-N
     RDKit          3D

 20 22  0  0  0  0  0  0  0  0999 V2000
    9.1380   10.6709   32.0401 N   0  0  0  0  0  0  0  0  0  0  0  0
    7.7824   11.1836   32.1738 C   0  0  0  0  0  0  0  0  0  0  0  0
    7.0983   11.3108   30.8353 C   0  0  0  0  0  0  0  0  0  0  0  0
    6.1582   10.3565   30.4134 C   0  0  0  0  0  0  0  0  0  0  0  0
    5.4830   10.5108   29.1980 C   0  0  0  0  0  0  0  0  0  0  0  0
    5.7718   11.6046   28.3792 C   0  0  0  0  0  0  0  0  0  0  0  0
    4.9695   11.8485   27.1536 C   0  0  0  0  0  0  0  0  0  0  0  0
    3.7446   11.8226   27.2295 O   0  0  0  0  0  0  0  0  0  0  0  0
    5.6358   12.2577   26.0227 N   0  0  0  0  0  0  0  0  0  0  0  0
    6.7663   11.6426   25.5110 C   0  0  0  0  0  0  0  0  0  0  0  0
    7.1537   10.3453   25.7396 C   0  0  0  0  0  0  0  0  0  0  0  0
    8.2158   10.0708   24.9214 N   0  0  0  0  0  0  0  0  0  0  0  0
    8.6061   11.2116   24.2682 C   0  0  0  0  0  0  0  0  0  0  0  0
    9.6927   11.4238   23.4220 C   0  0  0  0  0  0  0  0  0  0  0  0
    9.8484   12.6991   22.8872 C   0  0  0  0  0  0  0  0  0  0  0  0
    8.8965   13.6855   23.1058 C   0  0  0  0  0  0  0  0  0  0  0  0
    7.7991   13.4522   23.9406 C   0  0  0  0  0  0  0  0  0  0  0  0
    7.6698   12.1989   24.5652 C   0  0  0  0  0  0  0  0  0  0  0  0
    6.7251   12.5492   28.7782 C   0  0  0  0  0  0  0  0  0  0  0  0
    7.3809   12.4035   30.0019 C   0  0  0  0  0  0  0  0  0  0  0  0
  1  2  1  0
  2  3  1  0
  3  4  2  0
  4  5  1  0
  5  6  2  0
  6  7  1  0
  7  8  2  0
  7  9  1  0
  9 10  1  0
 10 11  2  0
 11 12  1  0
 12 13  1  0
 13 14  2  0
 14 15  1  0
 15 16  2  0
 16 17  1  0
 17 18  2  0
  6 19  1  0
 19 20  2  0
 20  3  1  0
 18 10  1  0
 18 13  1  0
M  END
>  <Crystalforms alias>  (26) 
nan

>  <original ID>  (26) 
XTQDUNSPBPDCKJ-UHFFFAOYSA-N

>  <alias>  (26) 
None

>  <distance_score>  (26) 
nan

>  <CanonSites upload name>  (26) 
nan

>  <CanonSites alias>  (26) 
nan

>  <ConformerSites alias>  (26) 
nan

>  <observation_longname>  (26) 
nan

>  <CrystalformSites alias>  (26) 
nan

>  <tags>  (26) 
['Syndirella scaffold']

>  <ref_mols>  (26) 


>  <ref_pdb>  (26) 


>  <Quatassemblies upload name>  (26) 
nan

>  <inchikey>  (26) 
XTQDUNSPBPDCKJ-UHFFFAOYSA-N

>  <Experiment code>  (26) 
nan

>  <Quatassemblies alias>  (26) 
nan

>  <Crystalforms upload name>  (26) 
nan

>  <Centroid res>  (26) 
nan

>  <ConformerSites upload name>  (26) 
nan

>  <energy_score>  (26) 
nan

>  <original SMILES>  (26) 
NCc1ccc(C(=O)Nc2c[nH]c3ccccc23)cc1

>  <exports>  (26) 
nan

>  <CrystalformSites upload name>  (26) 
nan

>  <name>  (26) 
XTQDUNSPBPDCKJ-UHFFFAOYSA-N

>  <HIPPO ID>  (26) 
245

$$$$
UMHURAQUKMFEOS-LLVKDONJSA-N
     RDKit          3D

 19 20  0  0  0  0  0  0  0  0999 V2000
    5.0383    8.4128   28.3359 C   0  0  0  0  0  0  0  0  0  0  0  0
    4.7124    9.0395   27.1026 O   0  0  0  0  0  0  0  0  0  0  0  0
    5.4221   10.1850   26.9955 C   0  0  0  0  0  0  0  0  0  0  0  0
    5.2029   11.2934   27.7919 C   0  0  0  0  0  0  0  0  0  0  0  0
    5.9556   12.4049   27.7295 N   0  0  0  0  0  0  0  0  0  0  0  0
    6.9108   12.4142   26.7899 C   0  0  0  0  0  0  0  0  0  0  0  0
    7.1413   11.3726   25.9057 C   0  0  0  0  0  0  0  0  0  0  0  0
    8.1739   11.4381   24.8643 C   0  0  0  0  0  0  0  0  0  0  0  0
    8.1655   12.7902   24.1990 C   0  0  0  0  0  0  0  0  0  0  0  0
    9.3889   12.8462   23.3733 C   0  0  0  0  0  0  0  0  0  0  0  0
   10.1590   11.9046   23.2535 O   0  0  0  0  0  0  0  0  0  0  0  0
    9.5592   14.0790   22.8129 N   0  0  0  0  0  0  0  0  0  0  0  0
   10.5785   14.1859   21.8115 C   0  0  2  0  0  0  0  0  0  0  0  0
   11.9937   13.9796   22.3137 C   0  0  0  0  0  0  0  0  0  0  0  0
   12.3989   15.3484   22.7938 C   0  0  0  0  0  0  0  0  0  0  0  0
   11.6696   16.2325   21.9477 N   0  0  0  0  0  0  0  0  0  0  0  0
   10.6249   15.5928   21.3050 C   0  0  0  0  0  0  0  0  0  0  0  0
    9.8181   16.0803   20.5315 O   0  0  0  0  0  0  0  0  0  0  0  0
    6.4000   10.2243   26.0353 C   0  0  0  0  0  0  0  0  0  0  0  0
  1  2  1  0
  2  3  1  0
  3  4  2  0
  4  5  1  0
  5  6  2  0
  6  7  1  0
  7  8  1  0
  8  9  1  0
  9 10  1  0
 10 11  2  0
 10 12  1  0
 13 12  1  1
 13 14  1  0
 14 15  1  0
 15 16  1  0
 16 17  1  0
 17 18  2  0
  7 19  2  0
 19  3  1  0
 17 13  1  0
M  END
>  <Crystalforms alias>  (27) 
nan

>  <original ID>  (27) 
UMHURAQUKMFEOS-LLVKDONJSA-N

>  <alias>  (27) 
None

>  <distance_score>  (27) 
nan

>  <CanonSites upload name>  (27) 
nan

>  <CanonSites alias>  (27) 
nan

>  <ConformerSites alias>  (27) 
nan

>  <observation_longname>  (27) 
nan

>  <CrystalformSites alias>  (27) 
nan

>  <tags>  (27) 
['Syndirella scaffold']

>  <ref_mols>  (27) 
A0515a,A0528a

>  <ref_pdb>  (27) 


>  <Quatassemblies upload name>  (27) 
nan

>  <inchikey>  (27) 
UMHURAQUKMFEOS-LLVKDONJSA-N

>  <Experiment code>  (27) 
nan

>  <Quatassemblies alias>  (27) 
nan

>  <Crystalforms upload name>  (27) 
nan

>  <Centroid res>  (27) 
nan

>  <ConformerSites upload name>  (27) 
nan

>  <energy_score>  (27) 
nan

>  <original SMILES>  (27) 
COc1cncc(CCC(=O)N[C@@H]2CCNC2=O)c1

>  <exports>  (27) 
nan

>  <CrystalformSites upload name>  (27) 
nan

>  <name>  (27) 
UMHURAQUKMFEOS-LLVKDONJSA-N

>  <HIPPO ID>  (27) 
246

$$$$
UMHURAQUKMFEOS-NSHDSACASA-N
     RDKit          3D

 19 20  0  0  0  0  0  0  0  0999 V2000
    4.6233    8.6220   27.6304 C   0  0  0  0  0  0  0  0  0  0  0  0
    4.7604   10.0183   27.4353 O   0  0  0  0  0  0  0  0  0  0  0  0
    5.8177   10.3528   26.6773 C   0  0  0  0  0  0  0  0  0  0  0  0
    6.3413    9.5955   25.6698 C   0  0  0  0  0  0  0  0  0  0  0  0
    7.4827    9.8179   25.0065 N   0  0  0  0  0  0  0  0  0  0  0  0
    7.9983   11.0159   25.1830 C   0  0  0  0  0  0  0  0  0  0  0  0
    7.3546   11.9801   25.9562 C   0  0  0  0  0  0  0  0  0  0  0  0
    7.5598   13.4397   25.7733 C   0  0  0  0  0  0  0  0  0  0  0  0
    7.7224   13.7310   24.2996 C   0  0  0  0  0  0  0  0  0  0  0  0
    9.1471   13.4841   23.9093 C   0  0  0  0  0  0  0  0  0  0  0  0
   10.0147   13.1176   24.6941 O   0  0  0  0  0  0  0  0  0  0  0  0
    9.4261   13.7959   22.6157 N   0  0  0  0  0  0  0  0  0  0  0  0
   10.5924   14.5913   22.4738 C   0  0  1  0  0  0  0  0  0  0  0  0
   11.9507   14.0955   22.9409 C   0  0  0  0  0  0  0  0  0  0  0  0
   12.7373   15.2811   22.4587 C   0  0  0  0  0  0  0  0  0  0  0  0
   12.2200   15.5048   21.1498 N   0  0  0  0  0  0  0  0  0  0  0  0
   10.8893   15.1120   21.0957 C   0  0  0  0  0  0  0  0  0  0  0  0
   10.1069   15.2514   20.1741 O   0  0  0  0  0  0  0  0  0  0  0  0
    6.3365   11.5999   26.8160 C   0  0  0  0  0  0  0  0  0  0  0  0
  1  2  1  0
  2  3  1  0
  3  4  2  0
  4  5  1  0
  5  6  2  0
  6  7  1  0
  7  8  1  0
  8  9  1  0
  9 10  1  0
 10 11  2  0
 10 12  1  0
 13 12  1  6
 13 14  1  0
 14 15  1  0
 15 16  1  0
 16 17  1  0
 17 18  2  0
  7 19  2  0
 19  3  1  0
 17 13  1  0
M  END
>  <Crystalforms alias>  (28) 
nan

>  <original ID>  (28) 
UMHURAQUKMFEOS-NSHDSACASA-N

>  <alias>  (28) 
None

>  <distance_score>  (28) 
nan

>  <CanonSites upload name>  (28) 
nan

>  <CanonSites alias>  (28) 
nan

>  <ConformerSites alias>  (28) 
nan

>  <observation_longname>  (28) 
nan

>  <CrystalformSites alias>  (28) 
nan

>  <tags>  (28) 
['Syndirella scaffold']

>  <ref_mols>  (28) 
A0515a,A0528a

>  <ref_pdb>  (28) 


>  <Quatassemblies upload name>  (28) 
nan

>  <inchikey>  (28) 
UMHURAQUKMFEOS-NSHDSACASA-N

>  <Experiment code>  (28) 
nan

>  <Quatassemblies alias>  (28) 
nan

>  <Crystalforms upload name>  (28) 
nan

>  <Centroid res>  (28) 
nan

>  <ConformerSites upload name>  (28) 
nan

>  <energy_score>  (28) 
nan

>  <original SMILES>  (28) 
COc1cncc(CCC(=O)N[C@H]2CCNC2=O)c1

>  <exports>  (28) 
nan

>  <CrystalformSites upload name>  (28) 
nan

>  <name>  (28) 
UMHURAQUKMFEOS-NSHDSACASA-N

>  <HIPPO ID>  (28) 
247

$$$$
NKHJVGNWKQVXFO-MRVPVSSYSA-N
     RDKit          3D

 18 19  0  0  0  0  0  0  0  0999 V2000
    9.1328   10.1728   24.5582 O   0  0  0  0  0  0  0  0  0  0  0  0
    8.5044   11.1937   24.3418 C   0  0  0  0  0  0  0  0  0  0  0  0
    8.6047   11.8071   23.1543 O   0  0  0  0  0  0  0  0  0  0  0  0
    8.4344   13.2174   22.9305 C   0  0  0  0  0  0  0  0  0  0  0  0
    9.7363   13.9826   23.1583 C   0  0  1  0  0  0  0  0  0  0  0  0
   10.9548   13.1431   23.5204 C   0  0  0  0  0  0  0  0  0  0  0  0
   12.1778   14.0295   23.7135 C   0  0  0  0  0  0  0  0  0  0  0  0
   12.4219   14.8082   22.4400 C   0  0  0  0  0  0  0  0  0  0  0  0
   11.2534   15.5290   22.0281 N   0  0  0  0  0  0  0  0  0  0  0  0
   10.0362   14.9028   21.9830 C   0  0  0  0  0  0  0  0  0  0  0  0
    9.2198   15.2139   21.1237 O   0  0  0  0  0  0  0  0  0  0  0  0
    7.5605   11.7209   25.3406 C   0  0  0  0  0  0  0  0  0  0  0  0
    7.6039   13.0160   25.8568 C   0  0  0  0  0  0  0  0  0  0  0  0
    6.6566   13.3856   26.7944 C   0  0  0  0  0  0  0  0  0  0  0  0
    5.7281   12.5408   27.2830 N   0  0  0  0  0  0  0  0  0  0  0  0
    5.7388   11.2778   26.8023 C   0  0  0  0  0  0  0  0  0  0  0  0
    6.6275   10.8342   25.8466 C   0  0  0  0  0  0  0  0  0  0  0  0
    6.5679    9.5713   25.4230 F   0  0  0  0  0  0  0  0  0  0  0  0
  1  2  2  0
  2  3  1  0
  3  4  1  0
  5  4  1  6
  5  6  1  0
  6  7  1  0
  7  8  1  0
  8  9  1  0
  9 10  1  0
 10 11  2  0
  2 12  1  0
 12 13  2  0
 13 14  1  0
 14 15  2  0
 15 16  1  0
 16 17  2  0
 17 18  1  0
 10  5  1  0
 17 12  1  0
M  END
>  <Crystalforms alias>  (29) 
nan

>  <original ID>  (29) 
NKHJVGNWKQVXFO-MRVPVSSYSA-N

>  <alias>  (29) 
None

>  <distance_score>  (29) 
nan

>  <CanonSites upload name>  (29) 
nan

>  <CanonSites alias>  (29) 
nan

>  <ConformerSites alias>  (29) 
nan

>  <observation_longname>  (29) 
nan

>  <CrystalformSites alias>  (29) 
nan

>  <tags>  (29) 
['Syndirella scaffold']

>  <ref_mols>  (29) 


>  <ref_pdb>  (29) 


>  <Quatassemblies upload name>  (29) 
nan

>  <inchikey>  (29) 
NKHJVGNWKQVXFO-MRVPVSSYSA-N

>  <Experiment code>  (29) 
nan

>  <Quatassemblies alias>  (29) 
nan

>  <Crystalforms upload name>  (29) 
nan

>  <Centroid res>  (29) 
nan

>  <ConformerSites upload name>  (29) 
nan

>  <energy_score>  (29) 
nan

>  <original SMILES>  (29) 
O=C(OC[C@H]1CCCNC1=O)c1ccncc1F

>  <exports>  (29) 
nan

>  <CrystalformSites upload name>  (29) 
nan

>  <name>  (29) 
NKHJVGNWKQVXFO-MRVPVSSYSA-N

>  <HIPPO ID>  (29) 
248

$$$$
MEWGRUZWHVKYDS-BJHJDKERSA-N
     RDKit          3D

 22 23  0  0  0  0  0  0  0  0999 V2000
    2.0723   10.7077   30.4391 C   0  0  0  0  0  0  0  0  0  0  0  0
    2.0785    9.1912   30.4993 C   0  0  0  0  0  0  0  0  0  0  0  0
    3.1214    8.5446   29.6066 C   0  0  2  0  0  0  0  0  0  0  0  0
    4.6066    9.0332   29.5978 C   0  0  0  0  0  0  0  0  0  0  0  0
    4.6192    8.5899   28.1271 C   0  0  2  0  0  0  0  0  0  0  0  0
    5.5193    9.2794   27.1905 N   0  0  0  0  0  0  0  0  0  0  0  0
    5.5550   10.5991   26.8182 C   0  0  0  0  0  0  0  0  0  0  0  0
    4.7876   11.4411   27.2689 O   0  0  0  0  0  0  0  0  0  0  0  0
    6.6069   11.0125   25.8381 C   0  0  0  0  0  0  0  0  0  0  0  0
    6.6664   12.3482   25.4742 C   0  0  0  0  0  0  0  0  0  0  0  0
    7.6890   12.7945   24.6447 C   0  0  0  0  0  0  0  0  0  0  0  0
    8.6803   11.9171   24.2217 C   0  0  0  0  0  0  0  0  0  0  0  0
    9.8406   12.4026   23.5864 N   0  0  0  0  0  0  0  0  0  0  0  0
   10.3559   13.6502   23.8997 C   0  0  0  0  0  0  0  0  0  0  0  0
    9.9088   14.3270   24.8326 O   0  0  0  0  0  0  0  0  0  0  0  0
   11.6416   14.1179   23.2115 C   0  0  0  0  0  0  0  0  0  0  0  0
   11.7517   15.6412   23.2568 C   0  0  0  0  0  0  0  0  0  0  0  0
   11.7163   13.7745   21.7401 C   0  0  0  0  0  0  0  0  0  0  0  0
   12.7798   13.5619   24.0606 C   0  0  0  0  0  0  0  0  0  0  0  0
    8.5878   10.5983   24.4558 N   0  0  0  0  0  0  0  0  0  0  0  0
    7.5607   10.1868   25.2561 C   0  0  0  0  0  0  0  0  0  0  0  0
    3.1125    8.8797   28.0939 C   0  0  0  0  0  0  0  0  0  0  0  0
  1  2  1  0
  3  2  1  1
  3  4  1  0
  4  5  1  0
  5  6  1  6
  6  7  1  0
  7  8  2  0
  7  9  1  0
  9 10  2  0
 10 11  1  0
 11 12  2  0
 12 13  1  0
 13 14  1  0
 14 15  2  0
 14 16  1  0
 16 17  1  0
 16 18  1  0
 16 19  1  0
 12 20  1  0
 20 21  2  0
  5 22  1  0
 22  3  1  0
 21  9  1  0
M  END
>  <Crystalforms alias>  (30) 
nan

>  <original ID>  (30) 
MEWGRUZWHVKYDS-BJHJDKERSA-N

>  <alias>  (30) 
None

>  <distance_score>  (30) 
nan

>  <CanonSites upload name>  (30) 
nan

>  <CanonSites alias>  (30) 
nan

>  <ConformerSites alias>  (30) 
nan

>  <observation_longname>  (30) 
nan

>  <CrystalformSites alias>  (30) 
nan

>  <tags>  (30) 
['Syndirella scaffold']

>  <ref_mols>  (30) 


>  <ref_pdb>  (30) 


>  <Quatassemblies upload name>  (30) 
nan

>  <inchikey>  (30) 
MEWGRUZWHVKYDS-BJHJDKERSA-N

>  <Experiment code>  (30) 
nan

>  <Quatassemblies alias>  (30) 
nan

>  <Crystalforms upload name>  (30) 
nan

>  <Centroid res>  (30) 
nan

>  <ConformerSites upload name>  (30) 
nan

>  <energy_score>  (30) 
nan

>  <original SMILES>  (30) 
CC[C@H]1C[C@@H](NC(=O)c2ccc(NC(=O)C(C)(C)C)nc2)C1

>  <exports>  (30) 
nan

>  <CrystalformSites upload name>  (30) 
nan

>  <name>  (30) 
MEWGRUZWHVKYDS-BJHJDKERSA-N

>  <HIPPO ID>  (30) 
251

$$$$
AJVIKZPIPBHAKY-UHFFFAOYSA-N
     RDKit          3D

 17 17  0  0  0  0  0  0  0  0999 V2000
    7.1804   14.5016   25.9667 C   0  0  0  0  0  0  0  0  0  0  0  0
    6.4327   13.2510   25.5297 C   0  0  0  0  0  0  0  0  0  0  0  0
    6.8695   12.1584   26.3555 O   0  0  0  0  0  0  0  0  0  0  0  0
    6.8526   10.9185   25.7793 C   0  0  0  0  0  0  0  0  0  0  0  0
    6.0116   10.0862   26.0834 O   0  0  0  0  0  0  0  0  0  0  0  0
    7.9813   10.7053   24.8863 C   0  0  0  0  0  0  0  0  0  0  0  0
    8.8941   11.7050   24.5472 C   0  0  0  0  0  0  0  0  0  0  0  0
    9.6717   11.2278   23.5428 C   0  0  0  0  0  0  0  0  0  0  0  0
   10.5750   11.9467   22.7942 N   0  0  0  0  0  0  0  0  0  0  0  0
   10.9813   13.2183   23.1979 C   0  0  0  0  0  0  0  0  0  0  0  0
   10.8498   13.6617   24.3393 O   0  0  0  0  0  0  0  0  0  0  0  0
   11.6195   14.0159   22.0913 C   0  0  0  0  0  0  0  0  0  0  0  0
   11.7672   15.4110   22.4859 C   0  0  0  0  0  0  0  0  0  0  0  0
   11.8143   16.5330   22.7744 N   0  0  0  0  0  0  0  0  0  0  0  0
    9.3294    9.9033   23.4536 N   0  0  0  0  0  0  0  0  0  0  0  0
    9.9396    8.8774   22.6606 C   0  0  0  0  0  0  0  0  0  0  0  0
    8.2923    9.5653   24.2584 N   0  0  0  0  0  0  0  0  0  0  0  0
  1  2  1  0
  2  3  1  0
  3  4  1  0
  4  5  2  0
  4  6  1  0
  6  7  1  0
  7  8  2  0
  8  9  1  0
  9 10  1  0
 10 11  2  0
 10 12  1  0
 12 13  1  0
 13 14  3  0
  8 15  1  0
 15 16  1  0
 15 17  1  0
 17  6  2  0
M  END
>  <Crystalforms alias>  (31) 
nan

>  <original ID>  (31) 
AJVIKZPIPBHAKY-UHFFFAOYSA-N

>  <alias>  (31) 
None

>  <distance_score>  (31) 
nan

>  <CanonSites upload name>  (31) 
nan

>  <CanonSites alias>  (31) 
nan

>  <ConformerSites alias>  (31) 
nan

>  <observation_longname>  (31) 
nan

>  <CrystalformSites alias>  (31) 
nan

>  <tags>  (31) 
['Syndirella scaffold']

>  <ref_mols>  (31) 


>  <ref_pdb>  (31) 


>  <Quatassemblies upload name>  (31) 
nan

>  <inchikey>  (31) 
AJVIKZPIPBHAKY-UHFFFAOYSA-N

>  <Experiment code>  (31) 
nan

>  <Quatassemblies alias>  (31) 
nan

>  <Crystalforms upload name>  (31) 
nan

>  <Centroid res>  (31) 
nan

>  <ConformerSites upload name>  (31) 
nan

>  <energy_score>  (31) 
nan

>  <original SMILES>  (31) 
CCOC(=O)c1cc(NC(=O)CC#N)n(C)n1

>  <exports>  (31) 
nan

>  <CrystalformSites upload name>  (31) 
nan

>  <name>  (31) 
AJVIKZPIPBHAKY-UHFFFAOYSA-N

>  <HIPPO ID>  (31) 
252

$$$$
FLWASAJBVPBCFC-UHFFFAOYSA-N
     RDKit          3D

 23 24  0  0  0  0  0  0  0  0999 V2000
   12.1894   13.2913   22.3426 C   0  0  0  0  0  0  0  0  0  0  0  0
   11.1390   14.2905   22.7071 C   0  0  0  0  0  0  0  0  0  0  0  0
   10.2733   14.5844   21.4813 C   0  0  0  0  0  0  0  0  0  0  0  0
   11.9128   15.5397   23.1328 C   0  0  0  0  0  0  0  0  0  0  0  0
   10.2966   13.6993   23.8443 C   0  0  0  0  0  0  0  0  0  0  0  0
   10.1910   14.2904   24.9215 O   0  0  0  0  0  0  0  0  0  0  0  0
    9.6651   12.4873   23.5928 N   0  0  0  0  0  0  0  0  0  0  0  0
    8.6142   12.0055   24.3749 C   0  0  0  0  0  0  0  0  0  0  0  0
    7.7540   12.9007   24.9906 C   0  0  0  0  0  0  0  0  0  0  0  0
    6.7269   12.4246   25.7862 C   0  0  0  0  0  0  0  0  0  0  0  0
    6.5603   11.0570   25.9503 C   0  0  0  0  0  0  0  0  0  0  0  0
    5.4420   10.6104   26.8152 C   0  0  0  0  0  0  0  0  0  0  0  0
    4.5784   11.4261   27.1132 O   0  0  0  0  0  0  0  0  0  0  0  0
    5.4533    9.3130   27.2682 N   0  0  0  0  0  0  0  0  0  0  0  0
    4.2991    8.5703   27.8956 C   0  0  0  0  0  0  0  0  0  0  0  0
    3.9666    7.3297   27.0455 C   0  0  0  0  0  0  0  0  0  0  0  0
    2.6906    6.9313   27.2332 F   0  0  0  0  0  0  0  0  0  0  0  0
    4.0824    7.6314   25.7208 F   0  0  0  0  0  0  0  0  0  0  0  0
    4.6083    8.2374   29.3887 C   0  0  0  0  0  0  0  0  0  0  0  0
    3.1174    8.4534   29.6880 C   0  0  0  0  0  0  0  0  0  0  0  0
    3.0790    9.3659   28.4480 C   0  0  0  0  0  0  0  0  0  0  0  0
    7.4301   10.2345   25.2509 C   0  0  0  0  0  0  0  0  0  0  0  0
    8.4464   10.6739   24.4608 N   0  0  0  0  0  0  0  0  0  0  0  0
  1  2  1  0
  2  3  1  0
  2  4  1  0
  2  5  1  0
  5  6  2  0
  5  7  1  0
  7  8  1  0
  8  9  2  0
  9 10  1  0
 10 11  2  0
 11 12  1  0
 12 13  2  0
 12 14  1  0
 14 15  1  0
 15 16  1  0
 16 17  1  0
 16 18  1  0
 15 19  1  0
 19 20  1  0
 20 21  1  0
 11 22  1  0
 22 23  2  0
 23  8  1  0
 21 15  1  0
M  END
>  <Crystalforms alias>  (32) 
nan

>  <original ID>  (32) 
FLWASAJBVPBCFC-UHFFFAOYSA-N

>  <alias>  (32) 
None

>  <distance_score>  (32) 
nan

>  <CanonSites upload name>  (32) 
nan

>  <CanonSites alias>  (32) 
nan

>  <ConformerSites alias>  (32) 
nan

>  <observation_longname>  (32) 
nan

>  <CrystalformSites alias>  (32) 
nan

>  <tags>  (32) 
['Syndirella scaffold']

>  <ref_mols>  (32) 


>  <ref_pdb>  (32) 


>  <Quatassemblies upload name>  (32) 
nan

>  <inchikey>  (32) 
FLWASAJBVPBCFC-UHFFFAOYSA-N

>  <Experiment code>  (32) 
nan

>  <Quatassemblies alias>  (32) 
nan

>  <Crystalforms upload name>  (32) 
nan

>  <Centroid res>  (32) 
nan

>  <ConformerSites upload name>  (32) 
nan

>  <energy_score>  (32) 
nan

>  <original SMILES>  (32) 
CC(C)(C)C(=O)Nc1ccc(C(=O)NC2(C(F)F)CCC2)cn1

>  <exports>  (32) 
nan

>  <CrystalformSites upload name>  (32) 
nan

>  <name>  (32) 
FLWASAJBVPBCFC-UHFFFAOYSA-N

>  <HIPPO ID>  (32) 
253

$$$$
ADKGLDCQLGUTAN-MQMHXKEQSA-N
     RDKit          3D

 22 23  0  0  0  0  0  0  0  0999 V2000
   11.6313   16.1376   22.6886 C   0  0  0  0  0  0  0  0  0  0  0  0
   12.4853   14.9232   22.4940 C   0  0  0  0  0  0  0  0  0  0  0  0
   11.6415   13.6820   22.2807 C   0  0  0  0  0  0  0  0  0  0  0  0
   10.8820   13.2195   23.4996 C   0  0  0  0  0  0  0  0  0  0  0  0
   10.8886   13.7984   24.5827 O   0  0  0  0  0  0  0  0  0  0  0  0
   10.1168   12.0862   23.2732 N   0  0  0  0  0  0  0  0  0  0  0  0
    9.1132   11.7303   24.2493 C   0  0  0  0  0  0  0  0  0  0  0  0
    7.9323   12.6832   24.1971 C   0  0  0  0  0  0  0  0  0  0  0  0
    6.9804   12.4084   25.3405 C   0  0  0  0  0  0  0  0  0  0  0  0
    6.6148   11.0074   25.5240 N   0  0  0  0  0  0  0  0  0  0  0  0
    5.5975   10.8311   26.4648 C   0  0  0  0  0  0  0  0  0  0  0  0
    4.9018   11.7685   26.8554 O   0  0  0  0  0  0  0  0  0  0  0  0
    5.4136    9.5708   26.9788 N   0  0  0  0  0  0  0  0  0  0  0  0
    4.3060    9.2909   27.9183 C   0  0  2  0  0  0  0  0  0  0  0  0
    4.6812    8.4565   29.1593 C   0  0  0  0  0  0  0  0  0  0  0  0
    3.2854    7.7812   29.0372 C   0  0  1  0  0  0  0  0  0  0  0  0
    2.1122    8.4415   29.7679 C   0  0  0  0  0  0  0  0  0  0  0  0
    2.2026    8.1851   31.2091 C   0  0  0  0  0  0  0  0  0  0  0  0
    2.2958    7.9659   32.3441 N   0  0  0  0  0  0  0  0  0  0  0  0
    3.3812    8.1054   27.5258 C   0  0  0  0  0  0  0  0  0  0  0  0
    7.6387   10.0076   25.2775 C   0  0  0  0  0  0  0  0  0  0  0  0
    8.6615   10.2916   24.1886 C   0  0  0  0  0  0  0  0  0  0  0  0
  1  2  1  0
  2  3  1  0
  3  4  1  0
  4  5  2  0
  4  6  1  0
  6  7  1  0
  7  8  1  0
  8  9  1  0
  9 10  1  0
 10 11  1  0
 11 12  2  0
 11 13  1  0
 14 13  1  6
 14 15  1  0
 15 16  1  0
 16 17  1  1
 17 18  1  0
 18 19  3  0
 16 20  1  0
 10 21  1  0
 21 22  1  0
 22  7  1  0
 20 14  1  0
M  END
>  <Crystalforms alias>  (33) 
nan

>  <original ID>  (33) 
ADKGLDCQLGUTAN-MQMHXKEQSA-N

>  <alias>  (33) 
None

>  <distance_score>  (33) 
nan

>  <CanonSites upload name>  (33) 
nan

>  <CanonSites alias>  (33) 
nan

>  <ConformerSites alias>  (33) 
nan

>  <observation_longname>  (33) 
nan

>  <CrystalformSites alias>  (33) 
nan

>  <tags>  (33) 
['Syndirella scaffold']

>  <ref_mols>  (33) 


>  <ref_pdb>  (33) 


>  <Quatassemblies upload name>  (33) 
nan

>  <inchikey>  (33) 
ADKGLDCQLGUTAN-MQMHXKEQSA-N

>  <Experiment code>  (33) 
nan

>  <Quatassemblies alias>  (33) 
nan

>  <Crystalforms upload name>  (33) 
nan

>  <Centroid res>  (33) 
nan

>  <ConformerSites upload name>  (33) 
nan

>  <energy_score>  (33) 
nan

>  <original SMILES>  (33) 
CCCC(=O)NC1CCN(C(=O)N[C@H]2C[C@H](CC#N)C2)CC1

>  <exports>  (33) 
nan

>  <CrystalformSites upload name>  (33) 
nan

>  <name>  (33) 
ADKGLDCQLGUTAN-MQMHXKEQSA-N

>  <HIPPO ID>  (33) 
254

$$$$
IXJHDOWQFHNIPX-UPONEAKYSA-N
     RDKit          3D

 18 20  0  0  0  0  0  0  0  0999 V2000
   13.2404   15.9162   21.2892 N   0  0  0  0  0  0  0  0  0  0  0  0
   12.0652   16.3187   21.8053 C   0  0  0  0  0  0  0  0  0  0  0  0
   11.8376   17.4612   22.1822 O   0  0  0  0  0  0  0  0  0  0  0  0
   11.0515   15.3160   21.7268 C   0  0  0  0  0  0  0  0  0  0  0  0
   10.7626   14.3024   22.6564 C   0  0  0  0  0  0  0  0  0  0  0  0
    9.4426   14.0442   22.3884 C   0  0  0  0  0  0  0  0  0  0  0  0
    8.4534   13.4355   23.1041 N   0  0  0  0  0  0  0  0  0  0  0  0
    8.6978   12.6165   24.1846 C   0  0  0  0  0  0  0  0  0  0  0  0
    9.7269   11.9596   24.3213 O   0  0  0  0  0  0  0  0  0  0  0  0
    7.5619   12.6253   25.2467 C   0  0  2  0  0  0  0  0  0  0  0  0
    6.2494   13.3086   24.8710 C   0  0  0  0  0  0  0  0  0  0  0  0
    5.2644   12.6905   25.8704 C   0  0  0  0  0  0  0  0  0  0  0  0
    6.1418   11.7725   26.7116 C   0  0  2  0  0  0  0  0  0  0  0  0
    7.0196   12.7184   27.5032 C   0  0  0  0  0  0  0  0  0  0  0  0
    7.8995   13.2803   26.4963 O   0  0  0  0  0  0  0  0  0  0  0  0
    7.1256   11.2355   25.6907 C   0  0  0  0  0  0  0  0  0  0  0  0
    9.1358   14.7002   21.2293 N   0  0  0  0  0  0  0  0  0  0  0  0
   10.1475   15.3927   20.7447 N   0  0  0  0  0  0  0  0  0  0  0  0
  1  2  1  0
  2  3  2  0
  2  4  1  0
  4  5  1  0
  5  6  2  0
  6  7  1  0
  7  8  1  0
  8  9  2  0
 10  8  1  6
 10 11  1  0
 11 12  1  0
 13 12  1  6
 13 14  1  0
 14 15  1  0
 13 16  1  0
  6 17  1  0
 17 18  1  0
 18  4  2  0
 15 10  1  0
 16 10  1  0
M  END
>  <Crystalforms alias>  (34) 
nan

>  <original ID>  (34) 
IXJHDOWQFHNIPX-UPONEAKYSA-N

>  <alias>  (34) 
None

>  <distance_score>  (34) 
nan

>  <CanonSites upload name>  (34) 
nan

>  <CanonSites alias>  (34) 
nan

>  <ConformerSites alias>  (34) 
nan

>  <observation_longname>  (34) 
nan

>  <CrystalformSites alias>  (34) 
nan

>  <tags>  (34) 
['Syndirella scaffold']

>  <ref_mols>  (34) 
A0528a,A0556a

>  <ref_pdb>  (34) 


>  <Quatassemblies upload name>  (34) 
nan

>  <inchikey>  (34) 
IXJHDOWQFHNIPX-UPONEAKYSA-N

>  <Experiment code>  (34) 
nan

>  <Quatassemblies alias>  (34) 
nan

>  <Crystalforms upload name>  (34) 
nan

>  <Centroid res>  (34) 
nan

>  <ConformerSites upload name>  (34) 
nan

>  <energy_score>  (34) 
nan

>  <original SMILES>  (34) 
NC(=O)c1cc(NC(=O)[C@]23CC[C@H](CO2)C3)[nH]n1

>  <exports>  (34) 
nan

>  <CrystalformSites upload name>  (34) 
nan

>  <name>  (34) 
IXJHDOWQFHNIPX-UPONEAKYSA-N

>  <HIPPO ID>  (34) 
255

$$$$
IXJHDOWQFHNIPX-UPONEAKYSA-N
     RDKit          3D

 18 20  0  0  0  0  0  0  0  0999 V2000
   11.7227   17.4035   21.9968 N   0  0  0  0  0  0  0  0  0  0  0  0
   12.4134   16.2390   21.7961 C   0  0  0  0  0  0  0  0  0  0  0  0
   13.5309   16.1986   21.3242 O   0  0  0  0  0  0  0  0  0  0  0  0
   11.5879   15.1172   22.1009 C   0  0  0  0  0  0  0  0  0  0  0  0
   11.5547   14.4100   23.3226 C   0  0  0  0  0  0  0  0  0  0  0  0
   10.3152   13.8286   23.3054 C   0  0  0  0  0  0  0  0  0  0  0  0
    9.5729   13.2448   24.3078 N   0  0  0  0  0  0  0  0  0  0  0  0
    8.3128   12.7690   24.0163 C   0  0  0  0  0  0  0  0  0  0  0  0
    7.9411   12.5918   22.8481 O   0  0  0  0  0  0  0  0  0  0  0  0
    7.3740   12.4158   25.1761 C   0  0  2  0  0  0  0  0  0  0  0  0
    7.3720   10.9097   25.4034 C   0  0  0  0  0  0  0  0  0  0  0  0
    6.3889   10.7559   26.5568 C   0  0  0  0  0  0  0  0  0  0  0  0
    6.0587   12.2132   26.9401 C   0  0  2  0  0  0  0  0  0  0  0  0
    5.1776   12.8106   25.8786 C   0  0  0  0  0  0  0  0  0  0  0  0
    6.0600   12.8477   24.7444 O   0  0  0  0  0  0  0  0  0  0  0  0
    7.3361   12.9639   26.5844 C   0  0  0  0  0  0  0  0  0  0  0  0
    9.8105   14.0401   22.0453 N   0  0  0  0  0  0  0  0  0  0  0  0
   10.5046   14.9174   21.3392 N   0  0  0  0  0  0  0  0  0  0  0  0
  1  2  1  0
  2  3  2  0
  2  4  1  0
  4  5  1  0
  5  6  2  0
  6  7  1  0
  7  8  1  0
  8  9  2  0
 10  8  1  6
 10 11  1  0
 11 12  1  0
 13 12  1  6
 13 14  1  0
 14 15  1  0
 13 16  1  0
  6 17  1  0
 17 18  1  0
 18  4  2  0
 15 10  1  0
 16 10  1  0
M  END
>  <Crystalforms alias>  (35) 
nan

>  <original ID>  (35) 
IXJHDOWQFHNIPX-UPONEAKYSA-N

>  <alias>  (35) 
None

>  <distance_score>  (35) 
nan

>  <CanonSites upload name>  (35) 
nan

>  <CanonSites alias>  (35) 
nan

>  <ConformerSites alias>  (35) 
nan

>  <observation_longname>  (35) 
nan

>  <CrystalformSites alias>  (35) 
nan

>  <tags>  (35) 
['Syndirella scaffold']

>  <ref_mols>  (35) 


>  <ref_pdb>  (35) 


>  <Quatassemblies upload name>  (35) 
nan

>  <inchikey>  (35) 
IXJHDOWQFHNIPX-UPONEAKYSA-N

>  <Experiment code>  (35) 
nan

>  <Quatassemblies alias>  (35) 
nan

>  <Crystalforms upload name>  (35) 
nan

>  <Centroid res>  (35) 
nan

>  <ConformerSites upload name>  (35) 
nan

>  <energy_score>  (35) 
nan

>  <original SMILES>  (35) 
NC(=O)c1cc(NC(=O)[C@]23CC[C@H](CO2)C3)[nH]n1

>  <exports>  (35) 
nan

>  <CrystalformSites upload name>  (35) 
nan

>  <name>  (35) 
IXJHDOWQFHNIPX-UPONEAKYSA-N

>  <HIPPO ID>  (35) 
256

$$$$
VKQJXGLAYUFNNG-OCAPTIKFSA-N
     RDKit          3D

 19 21  0  0  0  0  0  0  0  0999 V2000
    4.9363   11.6755   27.2227 O   0  0  0  0  0  0  0  0  0  0  0  0
    5.6461   10.7455   26.8494 C   0  0  0  0  0  0  0  0  0  0  0  0
    5.4850    9.4813   27.3806 N   0  0  0  0  0  0  0  0  0  0  0  0
    4.5282    9.2461   28.4743 C   0  0  2  0  0  0  0  0  0  0  0  0
    4.6060    7.8505   29.1277 C   0  0  0  0  0  0  0  0  0  0  0  0
    3.0569    7.8696   29.1839 C   0  0  2  0  0  0  0  0  0  0  0  0
    2.3193    6.5980   28.8776 C   0  0  0  0  0  0  0  0  0  0  0  0
    2.3919    5.7647   29.9332 F   0  0  0  0  0  0  0  0  0  0  0  0
    1.0204    6.8674   28.6216 F   0  0  0  0  0  0  0  0  0  0  0  0
    2.8379    5.9861   27.7929 F   0  0  0  0  0  0  0  0  0  0  0  0
    3.1112    8.8579   28.0098 C   0  0  0  0  0  0  0  0  0  0  0  0
    6.7135   10.9296   25.8947 C   0  0  0  0  0  0  0  0  0  0  0  0
    7.1766   12.1712   25.4398 C   0  0  0  0  0  0  0  0  0  0  0  0
    8.2180   11.8837   24.5810 C   0  0  0  0  0  0  0  0  0  0  0  0
    9.0954   12.6668   23.8443 C   0  0  0  0  0  0  0  0  0  0  0  0
    9.9475   11.8158   23.1534 C   0  0  0  0  0  0  0  0  0  0  0  0
    9.5755   10.1242   23.4042 S   0  0  0  0  0  0  0  0  0  0  0  0
    8.3785   10.5631   24.4664 C   0  0  0  0  0  0  0  0  0  0  0  0
    7.4672    9.9487   25.2551 N   0  0  0  0  0  0  0  0  0  0  0  0
  1  2  2  0
  2  3  1  0
  4  3  1  6
  4  5  1  0
  5  6  1  0
  6  7  1  6
  7  8  1  0
  7  9  1  0
  7 10  1  0
  6 11  1  0
  2 12  1  0
 12 13  2  0
 13 14  1  0
 14 15  1  0
 15 16  2  0
 16 17  1  0
 17 18  1  0
 18 19  1  0
 11  4  1  0
 19 12  1  0
 18 14  2  0
M  END
>  <Crystalforms alias>  (36) 
nan

>  <original ID>  (36) 
VKQJXGLAYUFNNG-OCAPTIKFSA-N

>  <alias>  (36) 
None

>  <distance_score>  (36) 
nan

>  <CanonSites upload name>  (36) 
nan

>  <CanonSites alias>  (36) 
nan

>  <ConformerSites alias>  (36) 
nan

>  <observation_longname>  (36) 
nan

>  <CrystalformSites alias>  (36) 
nan

>  <tags>  (36) 
['Syndirella scaffold']

>  <ref_mols>  (36) 


>  <ref_pdb>  (36) 


>  <Quatassemblies upload name>  (36) 
nan

>  <inchikey>  (36) 
VKQJXGLAYUFNNG-OCAPTIKFSA-N

>  <Experiment code>  (36) 
nan

>  <Quatassemblies alias>  (36) 
nan

>  <Crystalforms upload name>  (36) 
nan

>  <Centroid res>  (36) 
nan

>  <ConformerSites upload name>  (36) 
nan

>  <energy_score>  (36) 
nan

>  <original SMILES>  (36) 
O=C(N[C@H]1C[C@@H](C(F)(F)F)C1)c1cc2ccsc2[nH]1

>  <exports>  (36) 
nan

>  <CrystalformSites upload name>  (36) 
nan

>  <name>  (36) 
VKQJXGLAYUFNNG-OCAPTIKFSA-N

>  <HIPPO ID>  (36) 
257

$$$$
QCDPODCBNROZRQ-UHFFFAOYSA-N
     RDKit          3D

 20 21  0  0  0  0  0  0  0  0999 V2000
   11.7212   15.9002   23.7442 C   0  0  0  0  0  0  0  0  0  0  0  0
   11.7726   14.7511   24.7379 C   0  0  0  0  0  0  0  0  0  0  0  0
   10.8561   13.7115   24.2943 N   0  0  0  0  0  0  0  0  0  0  0  0
   10.8603   13.2861   23.0039 C   0  0  0  0  0  0  0  0  0  0  0  0
   11.6724   13.6629   22.1682 O   0  0  0  0  0  0  0  0  0  0  0  0
    9.9092   12.3769   22.6883 N   0  0  0  0  0  0  0  0  0  0  0  0
    9.0413   11.7152   23.5684 C   0  0  0  0  0  0  0  0  0  0  0  0
    9.1369   10.3251   23.5130 C   0  0  0  0  0  0  0  0  0  0  0  0
    8.3919    9.5463   24.3782 C   0  0  0  0  0  0  0  0  0  0  0  0
    7.5515   10.1398   25.3084 C   0  0  0  0  0  0  0  0  0  0  0  0
    7.4521   11.5200   25.3745 C   0  0  0  0  0  0  0  0  0  0  0  0
    8.1462   12.3414   24.4742 C   0  0  0  0  0  0  0  0  0  0  0  0
    7.9413   13.8355   24.5740 C   0  0  0  0  0  0  0  0  0  0  0  0
    6.2260   14.3720   24.4649 S   0  0  0  0  0  6  0  0  0  0  0  0
    5.8691   14.1342   22.8432 N   0  0  0  0  0  0  0  0  0  0  0  0
    5.3390   13.5268   25.2262 O   0  0  0  0  0  0  0  0  0  0  0  0
    6.2061   15.7956   24.6911 O   0  0  0  0  0  0  0  0  0  0  0  0
   13.1536   14.1626   25.1233 C   0  0  0  0  0  0  0  0  0  0  0  0
   13.0554   14.8691   26.4853 C   0  0  0  0  0  0  0  0  0  0  0  0
   11.5532   15.0422   26.2433 C   0  0  0  0  0  0  0  0  0  0  0  0
  1  2  1  0
  2  3  1  0
  3  4  1  0
  4  5  2  0
  4  6  1  0
  6  7  1  0
  7  8  2  0
  8  9  1  0
  9 10  2  0
 10 11  1  0
 11 12  2  0
 12 13  1  0
 13 14  1  0
 14 15  1  0
 14 16  2  0
 14 17  2  0
  2 18  1  0
 18 19  1  0
 19 20  1  0
 20  2  1  0
 12  7  1  0
M  END
>  <Crystalforms alias>  (37) 
nan

>  <original ID>  (37) 
QCDPODCBNROZRQ-UHFFFAOYSA-N

>  <alias>  (37) 
None

>  <distance_score>  (37) 
nan

>  <CanonSites upload name>  (37) 
nan

>  <CanonSites alias>  (37) 
nan

>  <ConformerSites alias>  (37) 
nan

>  <observation_longname>  (37) 
nan

>  <CrystalformSites alias>  (37) 
nan

>  <tags>  (37) 
['Syndirella scaffold']

>  <ref_mols>  (37) 


>  <ref_pdb>  (37) 


>  <Quatassemblies upload name>  (37) 
nan

>  <inchikey>  (37) 
QCDPODCBNROZRQ-UHFFFAOYSA-N

>  <Experiment code>  (37) 
nan

>  <Quatassemblies alias>  (37) 
nan

>  <Crystalforms upload name>  (37) 
nan

>  <Centroid res>  (37) 
nan

>  <ConformerSites upload name>  (37) 
nan

>  <energy_score>  (37) 
nan

>  <original SMILES>  (37) 
CC1(NC(=O)Nc2ccccc2CS(N)(=O)=O)CCC1

>  <exports>  (37) 
nan

>  <CrystalformSites upload name>  (37) 
nan

>  <name>  (37) 
QCDPODCBNROZRQ-UHFFFAOYSA-N

>  <HIPPO ID>  (37) 
258

$$$$
LOFPJTBPHYUPTQ-UHFFFAOYSA-N
     RDKit          3D

 21 23  0  0  0  0  0  0  0  0999 V2000
   10.4210   10.7464   22.7847 O   0  0  0  0  0  0  0  0  0  0  0  0
   10.2894   11.9128   23.1029 C   0  0  0  0  0  0  0  0  0  0  0  0
   11.2158   13.0601   22.7818 C   0  0  0  0  0  0  0  0  0  0  0  0
   10.8131   14.1122   23.7907 C   0  0  0  0  0  0  0  0  0  0  0  0
    9.3381   13.8647   23.9477 C   0  0  0  0  0  0  0  0  0  0  0  0
    9.2384   12.4384   23.8295 N   0  0  0  0  0  0  0  0  0  0  0  0
    8.2344   11.7006   24.4495 C   0  0  0  0  0  0  0  0  0  0  0  0
    7.1344   12.3868   24.9313 C   0  0  0  0  0  0  0  0  0  0  0  0
    6.1947   11.7237   25.6799 C   0  0  0  0  0  0  0  0  0  0  0  0
    6.3754   10.3861   25.9574 C   0  0  0  0  0  0  0  0  0  0  0  0
    5.4893    9.6852   26.7398 N   0  0  0  0  0  0  0  0  0  0  0  0
    4.8337   10.3199   27.8560 C   0  0  0  0  0  0  0  0  0  0  0  0
    5.7896   10.7612   28.9382 C   0  0  0  0  0  0  0  0  0  0  0  0
    6.1782    9.8556   29.9332 C   0  0  0  0  0  0  0  0  0  0  0  0
    7.0706   10.2368   30.9374 C   0  0  0  0  0  0  0  0  0  0  0  0
    7.5887   11.5301   30.9546 C   0  0  0  0  0  0  0  0  0  0  0  0
    7.2048   12.4329   29.9724 C   0  0  0  0  0  0  0  0  0  0  0  0
    7.7158   13.6712   29.9763 F   0  0  0  0  0  0  0  0  0  0  0  0
    6.3074   12.0658   28.9764 C   0  0  0  0  0  0  0  0  0  0  0  0
    7.3963    9.6853   25.4406 N   0  0  0  0  0  0  0  0  0  0  0  0
    8.2936   10.3335   24.6720 C   0  0  0  0  0  0  0  0  0  0  0  0
  1  2  2  0
  2  3  1  0
  3  4  1  0
  4  5  1  0
  5  6  1  0
  6  7  1  0
  7  8  2  0
  8  9  1  0
  9 10  2  0
 10 11  1  0
 11 12  1  0
 12 13  1  0
 13 14  2  0
 14 15  1  0
 15 16  2  0
 16 17  1  0
 17 18  1  0
 17 19  2  0
 10 20  1  0
 20 21  2  0
  6  2  1  0
 21  7  1  0
 19 13  1  0
M  END
>  <Crystalforms alias>  (38) 
nan

>  <original ID>  (38) 
LOFPJTBPHYUPTQ-UHFFFAOYSA-N

>  <alias>  (38) 
None

>  <distance_score>  (38) 
nan

>  <CanonSites upload name>  (38) 
nan

>  <CanonSites alias>  (38) 
nan

>  <ConformerSites alias>  (38) 
nan

>  <observation_longname>  (38) 
nan

>  <CrystalformSites alias>  (38) 
nan

>  <tags>  (38) 
['Syndirella scaffold']

>  <ref_mols>  (38) 


>  <ref_pdb>  (38) 


>  <Quatassemblies upload name>  (38) 
nan

>  <inchikey>  (38) 
LOFPJTBPHYUPTQ-UHFFFAOYSA-N

>  <Experiment code>  (38) 
nan

>  <Quatassemblies alias>  (38) 
nan

>  <Crystalforms upload name>  (38) 
nan

>  <Centroid res>  (38) 
nan

>  <ConformerSites upload name>  (38) 
nan

>  <energy_score>  (38) 
nan

>  <original SMILES>  (38) 
O=C1CCCN1c1ccc(NCc2cccc(F)c2)nc1

>  <exports>  (38) 
nan

>  <CrystalformSites upload name>  (38) 
nan

>  <name>  (38) 
LOFPJTBPHYUPTQ-UHFFFAOYSA-N

>  <HIPPO ID>  (38) 
260

$$$$
AOLHRJZGGWAHNY-UHFFFAOYSA-N
     RDKit          3D

 23 25  0  0  0  0  0  0  0  0999 V2000
    7.9666   11.7777   32.0986 C   0  0  0  0  0  0  0  0  0  0  0  0
    7.2748   11.4837   30.7963 C   0  0  0  0  0  0  0  0  0  0  0  0
    6.7508   10.2023   30.5717 C   0  0  0  0  0  0  0  0  0  0  0  0
    6.1239    9.8854   29.3653 C   0  0  0  0  0  0  0  0  0  0  0  0
    6.0033   10.8416   28.3539 C   0  0  0  0  0  0  0  0  0  0  0  0
    5.3502   10.4768   27.0424 C   0  0  0  0  0  0  0  0  0  0  0  0
    6.2890   10.0043   26.0464 N   0  0  0  0  0  0  0  0  0  0  0  0
    7.1490   10.8212   25.3507 C   0  0  0  0  0  0  0  0  0  0  0  0
    6.8849   12.1632   25.1584 C   0  0  0  0  0  0  0  0  0  0  0  0
    7.7992   12.9696   24.4971 C   0  0  0  0  0  0  0  0  0  0  0  0
    8.9875   12.4598   23.9915 C   0  0  0  0  0  0  0  0  0  0  0  0
    9.8985   13.3830   23.4784 N   0  0  0  0  0  0  0  0  0  0  0  0
   11.3386   13.1425   23.4970 C   0  0  0  0  0  0  0  0  0  0  0  0
   12.0521   14.5020   23.3912 C   0  0  0  0  0  0  0  0  0  0  0  0
   11.6840   15.2053   22.1858 N   0  0  0  0  0  0  0  0  0  0  0  0
   10.4350   15.0903   21.6359 C   0  0  0  0  0  0  0  0  0  0  0  0
   10.1301   15.7375   20.6346 O   0  0  0  0  0  0  0  0  0  0  0  0
    9.4434   14.0988   22.2559 C   0  0  0  0  0  0  0  0  0  0  0  0
    9.1195   11.0772   24.1290 C   0  0  0  0  0  0  0  0  0  0  0  0
    8.2419   10.2610   24.8006 N   0  0  0  0  0  0  0  0  0  0  0  0
    6.5048   12.1315   28.5893 C   0  0  0  0  0  0  0  0  0  0  0  0
    7.1571   12.4601   29.7900 C   0  0  0  0  0  0  0  0  0  0  0  0
    7.6917   13.8546   29.9761 C   0  0  0  0  0  0  0  0  0  0  0  0
  1  2  1  0
  2  3  2  0
  3  4  1  0
  4  5  2  0
  5  6  1  0
  6  7  1  0
  7  8  1  0
  8  9  2  0
  9 10  1  0
 10 11  2  0
 11 12  1  0
 12 13  1  0
 13 14  1  0
 14 15  1  0
 15 16  1  0
 16 17  2  0
 16 18  1  0
 11 19  1  0
 19 20  2  0
  5 21  1  0
 21 22  2  0
 22 23  1  0
 22  2  1  0
 20  8  1  0
 18 12  1  0
M  END
>  <Crystalforms alias>  (39) 
nan

>  <original ID>  (39) 
AOLHRJZGGWAHNY-UHFFFAOYSA-N

>  <alias>  (39) 
None

>  <distance_score>  (39) 
1.494676

>  <CanonSites upload name>  (39) 
nan

>  <CanonSites alias>  (39) 
nan

>  <ConformerSites alias>  (39) 
nan

>  <observation_longname>  (39) 
nan

>  <CrystalformSites alias>  (39) 
nan

>  <tags>  (39) 
['Syndirella scaffold']

>  <ref_mols>  (39) 
A0528a,A0365a

>  <ref_pdb>  (39) 
A0310a

>  <Quatassemblies upload name>  (39) 
nan

>  <inchikey>  (39) 
AOLHRJZGGWAHNY-UHFFFAOYSA-N

>  <Experiment code>  (39) 
nan

>  <Quatassemblies alias>  (39) 
nan

>  <Crystalforms upload name>  (39) 
nan

>  <Centroid res>  (39) 
nan

>  <ConformerSites upload name>  (39) 
nan

>  <energy_score>  (39) 
-27.949495

>  <original SMILES>  (39) 
Cc1ccc(CNc2ccc(N3CCNC(=O)C3)cn2)cc1C

>  <exports>  (39) 
nan

>  <CrystalformSites upload name>  (39) 
nan

>  <name>  (39) 
AOLHRJZGGWAHNY-UHFFFAOYSA-N

>  <HIPPO ID>  (39) 
26579

$$$$
ZIFQFUIWNNBHJM-UHFFFAOYSA-N
     RDKit          3D

 24 26  0  0  0  0  0  0  0  0999 V2000
    6.7107    9.2150   31.6994 C   0  0  0  0  0  0  0  0  0  0  0  0
    6.6827   10.2572   30.6143 C   0  0  0  0  0  0  0  0  0  0  0  0
    6.0739    9.9317   29.3879 C   0  0  0  0  0  0  0  0  0  0  0  0
    5.9837   10.8607   28.3454 C   0  0  0  0  0  0  0  0  0  0  0  0
    5.3604   10.4669   27.0263 C   0  0  0  0  0  0  0  0  0  0  0  0
    6.3367   10.0051   26.0665 N   0  0  0  0  0  0  0  0  0  0  0  0
    7.1741   10.8170   25.3438 C   0  0  0  0  0  0  0  0  0  0  0  0
    6.9010   12.1563   25.1458 C   0  0  0  0  0  0  0  0  0  0  0  0
    7.8082   12.9659   24.4796 C   0  0  0  0  0  0  0  0  0  0  0  0
    8.9984   12.4611   23.9750 C   0  0  0  0  0  0  0  0  0  0  0  0
    9.9061   13.3877   23.4625 N   0  0  0  0  0  0  0  0  0  0  0  0
   11.3463   13.1531   23.4852 C   0  0  0  0  0  0  0  0  0  0  0  0
   12.0531   14.5159   23.3822 C   0  0  0  0  0  0  0  0  0  0  0  0
   11.6853   15.2172   22.1755 N   0  0  0  0  0  0  0  0  0  0  0  0
   10.4367   15.0988   21.6240 C   0  0  0  0  0  0  0  0  0  0  0  0
   10.1320   15.7490   20.6244 O   0  0  0  0  0  0  0  0  0  0  0  0
    9.4489   14.1003   22.2389 C   0  0  0  0  0  0  0  0  0  0  0  0
    9.1376   11.0796   24.1147 C   0  0  0  0  0  0  0  0  0  0  0  0
    8.2698   10.2611   24.7950 N   0  0  0  0  0  0  0  0  0  0  0  0
    6.4932   12.1471   28.5569 C   0  0  0  0  0  0  0  0  0  0  0  0
    7.1307   12.4777   29.7557 C   0  0  0  0  0  0  0  0  0  0  0  0
    7.7704   14.0803   29.8960 Cl  0  0  0  0  0  0  0  0  0  0  0  0
    7.2601   11.5344   30.7915 C   0  0  0  0  0  0  0  0  0  0  0  0
    7.9648   11.9083   32.0705 C   0  0  0  0  0  0  0  0  0  0  0  0
  1  2  1  0
  2  3  2  0
  3  4  1  0
  4  5  1  0
  5  6  1  0
  6  7  1  0
  7  8  2  0
  8  9  1  0
  9 10  2  0
 10 11  1  0
 11 12  1  0
 12 13  1  0
 13 14  1  0
 14 15  1  0
 15 16  2  0
 15 17  1  0
 10 18  1  0
 18 19  2  0
  4 20  2  0
 20 21  1  0
 21 22  1  0
 21 23  2  0
 23 24  1  0
 23  2  1  0
 19  7  1  0
 17 11  1  0
M  END
>  <Crystalforms alias>  (40) 
nan

>  <original ID>  (40) 
ZIFQFUIWNNBHJM-UHFFFAOYSA-N

>  <alias>  (40) 
None

>  <distance_score>  (40) 
1.465815

>  <CanonSites upload name>  (40) 
nan

>  <CanonSites alias>  (40) 
nan

>  <ConformerSites alias>  (40) 
nan

>  <observation_longname>  (40) 
nan

>  <CrystalformSites alias>  (40) 
nan

>  <tags>  (40) 
[]

>  <ref_mols>  (40) 
A0528a,A0365a

>  <ref_pdb>  (40) 
A0310a

>  <Quatassemblies upload name>  (40) 
nan

>  <inchikey>  (40) 
ZIFQFUIWNNBHJM-UHFFFAOYSA-N

>  <Experiment code>  (40) 
nan

>  <Quatassemblies alias>  (40) 
nan

>  <Crystalforms upload name>  (40) 
nan

>  <Centroid res>  (40) 
nan

>  <ConformerSites upload name>  (40) 
nan

>  <energy_score>  (40) 
-24.379547

>  <original SMILES>  (40) 
Cc1cc(CNc2ccc(N3CCNC(=O)C3)cn2)cc(Cl)c1C

>  <exports>  (40) 
nan

>  <CrystalformSites upload name>  (40) 
nan

>  <name>  (40) 
ZIFQFUIWNNBHJM-UHFFFAOYSA-N

>  <HIPPO ID>  (40) 
26663

$$$$
QADDHVNVTIQSDO-UHFFFAOYSA-N
     RDKit          3D

 24 26  0  0  0  0  0  0  0  0999 V2000
    8.0852   11.8043   32.1383 C   0  0  0  0  0  0  0  0  0  0  0  0
    7.3411   11.4994   30.8681 C   0  0  0  0  0  0  0  0  0  0  0  0
    6.8170   10.2132   30.6733 C   0  0  0  0  0  0  0  0  0  0  0  0
    6.1363    9.8877   29.4998 C   0  0  0  0  0  0  0  0  0  0  0  0
    5.9608   10.8398   28.4936 C   0  0  0  0  0  0  0  0  0  0  0  0
    5.2551   10.4613   27.2147 C   0  0  0  0  0  0  0  0  0  0  0  0
    6.1501    9.9063   26.2264 N   0  0  0  0  0  0  0  0  0  0  0  0
    7.0466   10.6380   25.4889 C   0  0  0  0  0  0  0  0  0  0  0  0
    6.8859   11.9934   25.2890 C   0  0  0  0  0  0  0  0  0  0  0  0
    7.7998   12.7035   24.5289 C   0  0  0  0  0  0  0  0  0  0  0  0
    8.8685   12.0704   23.9097 C   0  0  0  0  0  0  0  0  0  0  0  0
    9.8173   12.7916   23.1520 N   0  0  0  0  0  0  0  0  0  0  0  0
   10.9837   13.1887   23.9549 C   0  0  0  0  0  0  0  0  0  0  0  0
   12.0295   13.8583   23.0741 C   0  0  0  0  0  0  0  0  0  0  0  0
   11.5195   15.0160   22.3822 N   0  0  0  0  0  0  0  0  0  0  0  0
   12.4952   15.8481   21.7346 C   0  0  0  0  0  0  0  0  0  0  0  0
   10.2901   14.8849   21.7344 C   0  0  0  0  0  0  0  0  0  0  0  0
    9.9670   15.5853   20.7763 O   0  0  0  0  0  0  0  0  0  0  0  0
    9.2685   13.9582   22.3933 C   0  0  0  0  0  0  0  0  0  0  0  0
    8.9308   10.6889   24.1234 C   0  0  0  0  0  0  0  0  0  0  0  0
    8.0615    9.9750   24.9052 N   0  0  0  0  0  0  0  0  0  0  0  0
    6.4655   12.1335   28.6982 C   0  0  0  0  0  0  0  0  0  0  0  0
    7.1721   12.4707   29.8643 C   0  0  0  0  0  0  0  0  0  0  0  0
    7.7048   13.8694   30.0201 C   0  0  0  0  0  0  0  0  0  0  0  0
  1  2  1  0
  2  3  2  0
  3  4  1  0
  4  5  2  0
  5  6  1  0
  6  7  1  0
  7  8  1  0
  8  9  2  0
  9 10  1  0
 10 11  2  0
 11 12  1  0
 12 13  1  0
 13 14  1  0
 14 15  1  0
 15 16  1  0
 15 17  1  0
 17 18  2  0
 17 19  1  0
 11 20  1  0
 20 21  2  0
  5 22  1  0
 22 23  2  0
 23 24  1  0
 23  2  1  0
 21  8  1  0
 19 12  1  0
M  END
>  <Crystalforms alias>  (41) 
nan

>  <original ID>  (41) 
QADDHVNVTIQSDO-UHFFFAOYSA-N

>  <alias>  (41) 
None

>  <distance_score>  (41) 
1.420319

>  <CanonSites upload name>  (41) 
nan

>  <CanonSites alias>  (41) 
nan

>  <ConformerSites alias>  (41) 
nan

>  <observation_longname>  (41) 
nan

>  <CrystalformSites alias>  (41) 
nan

>  <tags>  (41) 
[]

>  <ref_mols>  (41) 
A0528a,A0365a

>  <ref_pdb>  (41) 
A0310a

>  <Quatassemblies upload name>  (41) 
nan

>  <inchikey>  (41) 
QADDHVNVTIQSDO-UHFFFAOYSA-N

>  <Experiment code>  (41) 
nan

>  <Quatassemblies alias>  (41) 
nan

>  <Crystalforms upload name>  (41) 
nan

>  <Centroid res>  (41) 
nan

>  <ConformerSites upload name>  (41) 
nan

>  <energy_score>  (41) 
-23.819085

>  <original SMILES>  (41) 
Cc1ccc(CNc2ccc(N3CCN(C)C(=O)C3)cn2)cc1C

>  <exports>  (41) 
nan

>  <CrystalformSites upload name>  (41) 
nan

>  <name>  (41) 
QADDHVNVTIQSDO-UHFFFAOYSA-N

>  <HIPPO ID>  (41) 
26666

$$$$
ZQAUNZTUQONXPW-UHFFFAOYSA-N
     RDKit          3D

 25 27  0  0  0  0  0  0  0  0999 V2000
    6.8143    9.2043   31.7882 C   0  0  0  0  0  0  0  0  0  0  0  0
    6.7340   10.2502   30.7100 C   0  0  0  0  0  0  0  0  0  0  0  0
    6.0724    9.9246   29.5130 C   0  0  0  0  0  0  0  0  0  0  0  0
    5.9304   10.8555   28.4795 C   0  0  0  0  0  0  0  0  0  0  0  0
    5.2576   10.4536   27.1891 C   0  0  0  0  0  0  0  0  0  0  0  0
    6.1951    9.9085   26.2397 N   0  0  0  0  0  0  0  0  0  0  0  0
    7.0704   10.6382   25.4805 C   0  0  0  0  0  0  0  0  0  0  0  0
    6.9032   11.9929   25.2808 C   0  0  0  0  0  0  0  0  0  0  0  0
    7.8162   12.7084   24.5264 C   0  0  0  0  0  0  0  0  0  0  0  0
    8.8886   12.0796   23.9106 C   0  0  0  0  0  0  0  0  0  0  0  0
    9.8415   12.8068   23.1652 N   0  0  0  0  0  0  0  0  0  0  0  0
   10.9855   13.2297   23.9865 C   0  0  0  0  0  0  0  0  0  0  0  0
   12.0419   13.8887   23.1104 C   0  0  0  0  0  0  0  0  0  0  0  0
   11.5349   15.0282   22.3856 N   0  0  0  0  0  0  0  0  0  0  0  0
   12.5125   15.8514   21.7308 C   0  0  0  0  0  0  0  0  0  0  0  0
   10.3082   14.8896   21.7349 C   0  0  0  0  0  0  0  0  0  0  0  0
    9.9868   15.5844   20.7719 O   0  0  0  0  0  0  0  0  0  0  0  0
    9.2878   13.9602   22.3903 C   0  0  0  0  0  0  0  0  0  0  0  0
    8.9537   10.6975   24.1173 C   0  0  0  0  0  0  0  0  0  0  0  0
    8.0884    9.9795   24.8979 N   0  0  0  0  0  0  0  0  0  0  0  0
    6.4459   12.1427   28.6670 C   0  0  0  0  0  0  0  0  0  0  0  0
    7.1372   12.4732   29.8346 C   0  0  0  0  0  0  0  0  0  0  0  0
    7.7832   14.0756   29.9442 Cl  0  0  0  0  0  0  0  0  0  0  0  0
    7.3127   11.5299   30.8636 C   0  0  0  0  0  0  0  0  0  0  0  0
    8.0671   11.9069   32.1125 C   0  0  0  0  0  0  0  0  0  0  0  0
  1  2  1  0
  2  3  2  0
  3  4  1  0
  4  5  1  0
  5  6  1  0
  6  7  1  0
  7  8  2  0
  8  9  1  0
  9 10  2  0
 10 11  1  0
 11 12  1  0
 12 13  1  0
 13 14  1  0
 14 15  1  0
 14 16  1  0
 16 17  2  0
 16 18  1  0
 10 19  1  0
 19 20  2  0
  4 21  2  0
 21 22  1  0
 22 23  1  0
 22 24  2  0
 24 25  1  0
 24  2  1  0
 20  7  1  0
 18 11  1  0
M  END
>  <Crystalforms alias>  (42) 
nan

>  <original ID>  (42) 
ZQAUNZTUQONXPW-UHFFFAOYSA-N

>  <alias>  (42) 
None

>  <distance_score>  (42) 
1.416874

>  <CanonSites upload name>  (42) 
nan

>  <CanonSites alias>  (42) 
nan

>  <ConformerSites alias>  (42) 
nan

>  <observation_longname>  (42) 
nan

>  <CrystalformSites alias>  (42) 
nan

>  <tags>  (42) 
[]

>  <ref_mols>  (42) 
A0528a,A0365a

>  <ref_pdb>  (42) 
A0310a

>  <Quatassemblies upload name>  (42) 
nan

>  <inchikey>  (42) 
ZQAUNZTUQONXPW-UHFFFAOYSA-N

>  <Experiment code>  (42) 
nan

>  <Quatassemblies alias>  (42) 
nan

>  <Crystalforms upload name>  (42) 
nan

>  <Centroid res>  (42) 
nan

>  <ConformerSites upload name>  (42) 
nan

>  <energy_score>  (42) 
-23.383749

>  <original SMILES>  (42) 
Cc1cc(CNc2ccc(N3CCN(C)C(=O)C3)cn2)cc(Cl)c1C

>  <exports>  (42) 
nan

>  <CrystalformSites upload name>  (42) 
nan

>  <name>  (42) 
ZQAUNZTUQONXPW-UHFFFAOYSA-N

>  <HIPPO ID>  (42) 
27142

$$$$
DQWUNIXDDNPLQU-HXUWFJFHSA-N
     RDKit          3D

 29 31  0  0  0  0  0  0  0  0999 V2000
    6.0436   10.3555   27.0342 C   0  0  0  0  0  0  0  0  0  0  0  0
    7.1388   10.6143   26.0666 C   0  0  0  0  0  0  0  0  0  0  0  0
    7.5674    9.6278   25.2771 N   0  0  0  0  0  0  0  0  0  0  0  0
    8.5177   10.1927   24.5083 N   0  0  0  0  0  0  0  0  0  0  0  0
    9.1970    9.3857   23.5212 C   0  0  0  0  0  0  0  0  0  0  0  0
    8.7122   11.5213   24.7868 C   0  0  0  0  0  0  0  0  0  0  0  0
    9.6743   12.3827   24.0534 C   0  0  0  0  0  0  0  0  0  0  0  0
    7.8538   11.8195   25.8328 C   0  0  0  0  0  0  0  0  0  0  0  0
    7.7037   13.1262   26.5394 C   0  0  0  0  0  0  0  0  0  0  0  0
    6.8177   14.1607   25.8645 C   0  0  0  0  0  0  0  0  0  0  0  0
    6.8384   15.3248   26.2595 O   0  0  0  0  0  0  0  0  0  0  0  0
    5.9949   13.7017   24.8766 N   0  0  0  0  0  0  0  0  0  0  0  0
    4.9414   14.4538   24.2152 C   0  0  2  0  0  0  0  0  0  0  0  0
    5.3953   15.6446   23.3605 C   0  0  0  0  0  0  0  0  0  0  0  0
    6.6801   15.6352   22.6900 N   0  0  0  0  0  0  0  0  0  0  0  0
    7.2585   14.6129   21.9937 C   0  0  0  0  0  0  0  0  0  0  0  0
    6.7924   13.4748   21.9313 O   0  0  0  0  0  0  0  0  0  0  0  0
    8.6042   14.9858   21.3380 C   0  0  0  0  0  0  0  0  0  0  0  0
    8.7985   16.4253   21.1259 N   0  0  0  0  0  0  0  0  0  0  0  0
    3.7508   14.6959   25.1481 C   0  0  0  0  0  0  0  0  0  0  0  0
    3.0968   15.9272   25.2673 C   0  0  0  0  0  0  0  0  0  0  0  0
    1.9313   16.0584   26.0296 C   0  0  0  0  0  0  0  0  0  0  0  0
    1.4053   14.9658   26.7288 C   0  0  0  0  0  0  0  0  0  0  0  0
    0.2244   15.0742   27.4787 C   0  0  0  0  0  0  0  0  0  0  0  0
   -0.2663   13.9803   28.1908 C   0  0  0  0  0  0  0  0  0  0  0  0
    0.4255   12.7730   28.1770 C   0  0  0  0  0  0  0  0  0  0  0  0
    1.5962   12.6496   27.4306 C   0  0  0  0  0  0  0  0  0  0  0  0
    2.0874   13.7329   26.6856 C   0  0  0  0  0  0  0  0  0  0  0  0
    3.2389   13.6155   25.8899 C   0  0  0  0  0  0  0  0  0  0  0  0
  1  2  1  0
  2  3  2  0
  3  4  1  0
  4  5  1  0
  4  6  1  0
  6  7  1  0
  6  8  2  0
  8  9  1  0
  9 10  1  0
 10 11  2  0
 10 12  1  0
 12 13  1  0
 13 14  1  1
 14 15  1  0
 15 16  1  0
 16 17  2  0
 16 18  1  0
 18 19  1  0
 13 20  1  0
 20 21  2  0
 21 22  1  0
 22 23  2  0
 23 24  1  0
 24 25  2  0
 25 26  1  0
 26 27  2  0
 27 28  1  0
 28 29  2  0
  8  2  1  0
 29 20  1  0
 28 23  1  0
M  END
>  <Crystalforms alias>  (43) 
nan

>  <original ID>  (43) 
DQWUNIXDDNPLQU-HXUWFJFHSA-N

>  <alias>  (43) 
None

>  <distance_score>  (43) 
0.353998

>  <CanonSites upload name>  (43) 
nan

>  <CanonSites alias>  (43) 
nan

>  <ConformerSites alias>  (43) 
nan

>  <observation_longname>  (43) 
nan

>  <CrystalformSites alias>  (43) 
nan

>  <tags>  (43) 
['Syndirella scaffold']

>  <ref_mols>  (43) 
A1346a

>  <ref_pdb>  (43) 
A1346a

>  <Quatassemblies upload name>  (43) 
nan

>  <inchikey>  (43) 
DQWUNIXDDNPLQU-HXUWFJFHSA-N

>  <Experiment code>  (43) 
nan

>  <Quatassemblies alias>  (43) 
nan

>  <Crystalforms upload name>  (43) 
nan

>  <Centroid res>  (43) 
nan

>  <ConformerSites upload name>  (43) 
nan

>  <energy_score>  (43) 
-39.368345

>  <original SMILES>  (43) 
Cc1nn(C)c(C)c1CC(=O)N[C@H](CNC(=O)CN)c1ccc2ccccc2c1

>  <exports>  (43) 
nan

>  <CrystalformSites upload name>  (43) 
nan

>  <name>  (43) 
DQWUNIXDDNPLQU-HXUWFJFHSA-N

>  <HIPPO ID>  (43) 
31134

$$$$
DQWUNIXDDNPLQU-FQEVSTJZSA-N
     RDKit          3D

 29 31  0  0  0  0  0  0  0  0999 V2000
    6.0190   10.2927   27.0172 C   0  0  0  0  0  0  0  0  0  0  0  0
    7.0979   10.5747   26.0384 C   0  0  0  0  0  0  0  0  0  0  0  0
    7.5219    9.6061   25.2256 N   0  0  0  0  0  0  0  0  0  0  0  0
    8.4638   10.1891   24.4597 N   0  0  0  0  0  0  0  0  0  0  0  0
    9.1588    9.3950   23.4732 C   0  0  0  0  0  0  0  0  0  0  0  0
    8.6664   11.5087   24.7719 C   0  0  0  0  0  0  0  0  0  0  0  0
    9.6344   12.3835   24.0612 C   0  0  0  0  0  0  0  0  0  0  0  0
    7.8288   11.7751   25.8428 C   0  0  0  0  0  0  0  0  0  0  0  0
    7.7669   13.0161   26.6567 C   0  0  0  0  0  0  0  0  0  0  0  0
    6.9952   14.1939   26.1231 C   0  0  0  0  0  0  0  0  0  0  0  0
    7.1551   15.2898   26.6659 O   0  0  0  0  0  0  0  0  0  0  0  0
    6.1290   13.9893   25.0858 N   0  0  0  0  0  0  0  0  0  0  0  0
    5.2178   15.0380   24.6414 C   0  0  1  0  0  0  0  0  0  0  0  0
    5.0521   15.0540   23.1067 C   0  0  0  0  0  0  0  0  0  0  0  0
    6.2697   15.4487   22.4220 N   0  0  0  0  0  0  0  0  0  0  0  0
    7.2130   14.5590   21.9849 C   0  0  0  0  0  0  0  0  0  0  0  0
    7.0429   13.3403   22.0400 O   0  0  0  0  0  0  0  0  0  0  0  0
    8.4909   15.1860   21.4022 C   0  0  0  0  0  0  0  0  0  0  0  0
    8.4307   16.6562   21.3619 N   0  0  0  0  0  0  0  0  0  0  0  0
    3.8708   14.9701   25.3514 C   0  0  0  0  0  0  0  0  0  0  0  0
    3.0718   16.1215   25.4009 C   0  0  0  0  0  0  0  0  0  0  0  0
    1.8296   16.1140   26.0359 C   0  0  0  0  0  0  0  0  0  0  0  0
    1.3722   14.9616   26.6839 C   0  0  0  0  0  0  0  0  0  0  0  0
    0.1417   14.9466   27.3565 C   0  0  0  0  0  0  0  0  0  0  0  0
   -0.2775   13.8060   28.0391 C   0  0  0  0  0  0  0  0  0  0  0  0
    0.5278   12.6710   28.0619 C   0  0  0  0  0  0  0  0  0  0  0  0
    1.7458   12.6663   27.3840 C   0  0  0  0  0  0  0  0  0  0  0  0
    2.1774   13.8007   26.6793 C   0  0  0  0  0  0  0  0  0  0  0  0
    3.4001   13.8107   25.9857 C   0  0  0  0  0  0  0  0  0  0  0  0
  1  2  1  0
  2  3  2  0
  3  4  1  0
  4  5  1  0
  4  6  1  0
  6  7  1  0
  6  8  2  0
  8  9  1  0
  9 10  1  0
 10 11  2  0
 10 12  1  0
 12 13  1  0
 13 14  1  6
 14 15  1  0
 15 16  1  0
 16 17  2  0
 16 18  1  0
 18 19  1  0
 13 20  1  0
 20 21  2  0
 21 22  1  0
 22 23  2  0
 23 24  1  0
 24 25  2  0
 25 26  1  0
 26 27  2  0
 27 28  1  0
 28 29  2  0
  8  2  1  0
 29 20  1  0
 28 23  1  0
M  END
>  <Crystalforms alias>  (44) 
nan

>  <original ID>  (44) 
DQWUNIXDDNPLQU-FQEVSTJZSA-N

>  <alias>  (44) 
None

>  <distance_score>  (44) 
0.218284

>  <CanonSites upload name>  (44) 
nan

>  <CanonSites alias>  (44) 
nan

>  <ConformerSites alias>  (44) 
nan

>  <observation_longname>  (44) 
nan

>  <CrystalformSites alias>  (44) 
nan

>  <tags>  (44) 
['Syndirella scaffold']

>  <ref_mols>  (44) 
A1346a

>  <ref_pdb>  (44) 
A1346a

>  <Quatassemblies upload name>  (44) 
nan

>  <inchikey>  (44) 
DQWUNIXDDNPLQU-FQEVSTJZSA-N

>  <Experiment code>  (44) 
nan

>  <Quatassemblies alias>  (44) 
nan

>  <Crystalforms upload name>  (44) 
nan

>  <Centroid res>  (44) 
nan

>  <ConformerSites upload name>  (44) 
nan

>  <energy_score>  (44) 
-48.414338

>  <original SMILES>  (44) 
Cc1nn(C)c(C)c1CC(=O)N[C@@H](CNC(=O)CN)c1ccc2ccccc2c1

>  <exports>  (44) 
nan

>  <CrystalformSites upload name>  (44) 
nan

>  <name>  (44) 
DQWUNIXDDNPLQU-FQEVSTJZSA-N

>  <HIPPO ID>  (44) 
31135

$$$$
YUJRUUDRDNZMAX-OUPRXKBMSA-N
     RDKit          3D

 33 35  0  0  0  0  0  0  0  0999 V2000
   11.0830   14.3040   24.8217 C   0  0  0  0  0  0  0  0  0  0  0  0
   10.0146   14.6807   23.9722 O   0  0  0  0  0  0  0  0  0  0  0  0
   10.2268   14.5138   22.5682 C   0  0  2  0  0  0  0  0  0  0  0  0
   11.5848   15.0804   22.1543 C   0  0  0  0  0  0  0  0  0  0  0  0
    9.0483   15.1551   21.7793 C   0  0  1  0  0  0  0  0  0  0  0  0
    9.3202   14.9372   20.3570 N   0  0  0  0  0  0  0  0  0  0  0  0
    7.6420   14.5534   22.1307 C   0  0  0  0  0  0  0  0  0  0  0  0
    7.3784   13.3507   22.0724 O   0  0  0  0  0  0  0  0  0  0  0  0
    6.6500   15.4614   22.4353 N   0  0  0  0  0  0  0  0  0  0  0  0
    5.3504   15.0597   22.9889 C   0  0  0  0  0  0  0  0  0  0  0  0
    5.3720   14.9636   24.5371 C   0  0  2  0  0  0  0  0  0  0  0  0
    6.1938   13.8483   24.9946 N   0  0  0  0  0  0  0  0  0  0  0  0
    6.9953   13.9672   26.0935 C   0  0  0  0  0  0  0  0  0  0  0  0
    7.2292   15.0482   26.6424 O   0  0  0  0  0  0  0  0  0  0  0  0
    7.5900   12.7161   26.6868 C   0  0  0  0  0  0  0  0  0  0  0  0
    7.5606   11.4309   25.9353 C   0  0  0  0  0  0  0  0  0  0  0  0
    6.8187   10.2577   26.2099 C   0  0  0  0  0  0  0  0  0  0  0  0
    5.7707   10.0580   27.2377 C   0  0  0  0  0  0  0  0  0  0  0  0
    7.1979    9.2365   25.4323 N   0  0  0  0  0  0  0  0  0  0  0  0
    8.1642    9.7417   24.6467 N   0  0  0  0  0  0  0  0  0  0  0  0
    8.9122    8.9134   23.7272 C   0  0  0  0  0  0  0  0  0  0  0  0
    8.3317   11.0710   24.8513 C   0  0  0  0  0  0  0  0  0  0  0  0
    9.2128   11.8587   24.0042 C   0  0  0  0  0  0  0  0  0  0  0  0
    3.9840   14.9285   25.1789 C   0  0  0  0  0  0  0  0  0  0  0  0
    3.2090   16.0952   25.1964 C   0  0  0  0  0  0  0  0  0  0  0  0
    1.9586   16.1325   25.8194 C   0  0  0  0  0  0  0  0  0  0  0  0
    1.4657   15.0098   26.4930 C   0  0  0  0  0  0  0  0  0  0  0  0
    0.2306   15.0412   27.1586 C   0  0  0  0  0  0  0  0  0  0  0  0
   -0.2191   13.9303   27.8705 C   0  0  0  0  0  0  0  0  0  0  0  0
    0.5615   12.7800   27.9315 C   0  0  0  0  0  0  0  0  0  0  0  0
    1.7832   12.7303   27.2617 C   0  0  0  0  0  0  0  0  0  0  0  0
    2.2439   13.8328   26.5246 C   0  0  0  0  0  0  0  0  0  0  0  0
    3.4735   13.7982   25.8399 C   0  0  0  0  0  0  0  0  0  0  0  0
  1  2  1  0
  2  3  1  0
  3  4  1  6
  3  5  1  0
  5  6  1  6
  5  7  1  0
  7  8  2  0
  7  9  1  0
  9 10  1  0
 11 10  1  6
 11 12  1  0
 12 13  1  0
 13 14  2  0
 13 15  1  0
 15 16  1  0
 16 17  1  0
 17 18  1  0
 17 19  2  0
 19 20  1  0
 20 21  1  0
 20 22  1  0
 22 23  1  0
 11 24  1  0
 24 25  2  0
 25 26  1  0
 26 27  2  0
 27 28  1  0
 28 29  2  0
 29 30  1  0
 30 31  2  0
 31 32  1  0
 32 33  2  0
 22 16  2  0
 33 24  1  0
 32 27  1  0
M  END
>  <Crystalforms alias>  (45) 
nan

>  <original ID>  (45) 
YUJRUUDRDNZMAX-OUPRXKBMSA-N

>  <alias>  (45) 
None

>  <distance_score>  (45) 
0.386719

>  <CanonSites upload name>  (45) 
nan

>  <CanonSites alias>  (45) 
nan

>  <ConformerSites alias>  (45) 
nan

>  <observation_longname>  (45) 
nan

>  <CrystalformSites alias>  (45) 
nan

>  <tags>  (45) 
[]

>  <ref_mols>  (45) 
A1346a

>  <ref_pdb>  (45) 
A1346a

>  <Quatassemblies upload name>  (45) 
nan

>  <inchikey>  (45) 
YUJRUUDRDNZMAX-OUPRXKBMSA-N

>  <Experiment code>  (45) 
nan

>  <Quatassemblies alias>  (45) 
nan

>  <Crystalforms upload name>  (45) 
nan

>  <Centroid res>  (45) 
nan

>  <ConformerSites upload name>  (45) 
nan

>  <energy_score>  (45) 
-36.922025

>  <original SMILES>  (45) 
CO[C@H](C)[C@@H](N)C(=O)NC[C@H](NC(=O)Cc1c(C)nn(C)c1C)c1ccc2ccccc2c1

>  <exports>  (45) 
nan

>  <CrystalformSites upload name>  (45) 
nan

>  <name>  (45) 
YUJRUUDRDNZMAX-OUPRXKBMSA-N

>  <HIPPO ID>  (45) 
31918

$$$$
YUJRUUDRDNZMAX-OZWPHOJSSA-N
     RDKit          3D

 33 35  0  0  0  0  0  0  0  0999 V2000
   11.7050   14.4347   20.1219 C   0  0  0  0  0  0  0  0  0  0  0  0
   10.3482   14.6840   20.4435 O   0  0  0  0  0  0  0  0  0  0  0  0
    9.9423   14.2813   21.7625 C   0  0  1  0  0  0  0  0  0  0  0  0
   11.0331   14.5683   22.8132 C   0  0  0  0  0  0  0  0  0  0  0  0
    8.6666   15.0608   22.1279 C   0  0  1  0  0  0  0  0  0  0  0  0
    8.6267   16.4345   21.5768 N   0  0  0  0  0  0  0  0  0  0  0  0
    7.2857   14.3906   22.0433 C   0  0  0  0  0  0  0  0  0  0  0  0
    7.1013   13.1783   22.0246 O   0  0  0  0  0  0  0  0  0  0  0  0
    6.2566   15.2896   22.2353 N   0  0  0  0  0  0  0  0  0  0  0  0
    5.0293   14.9312   22.9271 C   0  0  0  0  0  0  0  0  0  0  0  0
    5.2039   14.9597   24.4698 C   0  0  2  0  0  0  0  0  0  0  0  0
    6.0575   13.8751   24.9539 N   0  0  0  0  0  0  0  0  0  0  0  0
    6.8906   14.0512   26.0312 C   0  0  0  0  0  0  0  0  0  0  0  0
    7.2952   15.1527   26.4054 O   0  0  0  0  0  0  0  0  0  0  0  0
    7.2274   12.8148   26.8369 C   0  0  0  0  0  0  0  0  0  0  0  0
    7.4982   11.5734   26.0626 C   0  0  0  0  0  0  0  0  0  0  0  0
    6.8212   10.3344   26.1604 C   0  0  0  0  0  0  0  0  0  0  0  0
    5.6800    9.9816   27.0375 C   0  0  0  0  0  0  0  0  0  0  0  0
    7.3524    9.4156   25.3517 N   0  0  0  0  0  0  0  0  0  0  0  0
    8.3276   10.0619   24.6891 N   0  0  0  0  0  0  0  0  0  0  0  0
    9.0635    9.3813   23.6466 C   0  0  0  0  0  0  0  0  0  0  0  0
    8.4891   11.3484   25.1247 C   0  0  0  0  0  0  0  0  0  0  0  0
    9.5156   12.2698   24.6135 C   0  0  0  0  0  0  0  0  0  0  0  0
    3.8627   14.9609   25.2034 C   0  0  0  0  0  0  0  0  0  0  0  0
    3.1276   16.1503   25.2817 C   0  0  0  0  0  0  0  0  0  0  0  0
    1.8996   16.2031   25.9453 C   0  0  0  0  0  0  0  0  0  0  0  0
    1.3930   15.0727   26.5965 C   0  0  0  0  0  0  0  0  0  0  0  0
    0.1759   15.1151   27.2933 C   0  0  0  0  0  0  0  0  0  0  0  0
   -0.2890   13.9930   27.9774 C   0  0  0  0  0  0  0  0  0  0  0  0
    0.4594   12.8203   27.9807 C   0  0  0  0  0  0  0  0  0  0  0  0
    1.6616   12.7587   27.2780 C   0  0  0  0  0  0  0  0  0  0  0  0
    2.1357   13.8732   26.5682 C   0  0  0  0  0  0  0  0  0  0  0  0
    3.3409   13.8248   25.8449 C   0  0  0  0  0  0  0  0  0  0  0  0
  1  2  1  0
  2  3  1  0
  3  4  1  1
  3  5  1  0
  5  6  1  6
  5  7  1  0
  7  8  2  0
  7  9  1  0
  9 10  1  0
 11 10  1  6
 11 12  1  0
 12 13  1  0
 13 14  2  0
 13 15  1  0
 15 16  1  0
 16 17  1  0
 17 18  1  0
 17 19  2  0
 19 20  1  0
 20 21  1  0
 20 22  1  0
 22 23  1  0
 11 24  1  0
 24 25  2  0
 25 26  1  0
 26 27  2  0
 27 28  1  0
 28 29  2  0
 29 30  1  0
 30 31  2  0
 31 32  1  0
 32 33  2  0
 22 16  2  0
 33 24  1  0
 32 27  1  0
M  END
>  <Crystalforms alias>  (46) 
nan

>  <original ID>  (46) 
YUJRUUDRDNZMAX-OZWPHOJSSA-N

>  <alias>  (46) 
None

>  <distance_score>  (46) 
0.362435

>  <CanonSites upload name>  (46) 
nan

>  <CanonSites alias>  (46) 
nan

>  <ConformerSites alias>  (46) 
nan

>  <observation_longname>  (46) 
nan

>  <CrystalformSites alias>  (46) 
nan

>  <tags>  (46) 
[]

>  <ref_mols>  (46) 
A1346a

>  <ref_pdb>  (46) 
A1346a

>  <Quatassemblies upload name>  (46) 
nan

>  <inchikey>  (46) 
YUJRUUDRDNZMAX-OZWPHOJSSA-N

>  <Experiment code>  (46) 
nan

>  <Quatassemblies alias>  (46) 
nan

>  <Crystalforms upload name>  (46) 
nan

>  <Centroid res>  (46) 
nan

>  <ConformerSites upload name>  (46) 
nan

>  <energy_score>  (46) 
-45.762347

>  <original SMILES>  (46) 
CO[C@@H](C)[C@@H](N)C(=O)NC[C@H](NC(=O)Cc1c(C)nn(C)c1C)c1ccc2ccccc2c1

>  <exports>  (46) 
nan

>  <CrystalformSites upload name>  (46) 
nan

>  <name>  (46) 
YUJRUUDRDNZMAX-OZWPHOJSSA-N

>  <HIPPO ID>  (46) 
31919

$$$$
YUJRUUDRDNZMAX-UWSIMGETSA-N
     RDKit          3D

 33 35  0  0  0  0  0  0  0  0999 V2000
   11.6581   13.3926   23.2454 C   0  0  0  0  0  0  0  0  0  0  0  0
   10.3526   13.3851   22.6652 O   0  0  0  0  0  0  0  0  0  0  0  0
   10.1581   14.4862   21.7727 C   0  0  2  0  0  0  0  0  0  0  0  0
   10.6230   15.7160   22.4764 C   0  0  0  0  0  0  0  0  0  0  0  0
    8.7273   14.6342   21.2260 C   0  0  2  0  0  0  0  0  0  0  0  0
    8.5222   15.8956   20.5019 N   0  0  0  0  0  0  0  0  0  0  0  0
    7.5056   14.2883   22.1216 C   0  0  0  0  0  0  0  0  0  0  0  0
    7.2337   13.1225   22.4201 O   0  0  0  0  0  0  0  0  0  0  0  0
    6.6626   15.3224   22.4678 N   0  0  0  0  0  0  0  0  0  0  0  0
    5.3613   15.0773   23.0967 C   0  0  0  0  0  0  0  0  0  0  0  0
    5.3994   15.0453   24.6439 C   0  0  2  0  0  0  0  0  0  0  0  0
    6.1912   13.9358   25.1558 N   0  0  0  0  0  0  0  0  0  0  0  0
    6.8825   14.0368   26.3380 C   0  0  0  0  0  0  0  0  0  0  0  0
    7.2831   15.1046   26.8027 O   0  0  0  0  0  0  0  0  0  0  0  0
    7.0314   12.7492   27.1307 C   0  0  0  0  0  0  0  0  0  0  0  0
    7.3061   11.5282   26.3273 C   0  0  0  0  0  0  0  0  0  0  0  0
    6.6285   10.2884   26.3333 C   0  0  0  0  0  0  0  0  0  0  0  0
    5.4861    9.8871   27.1823 C   0  0  0  0  0  0  0  0  0  0  0  0
    7.1598    9.4222   25.4641 N   0  0  0  0  0  0  0  0  0  0  0  0
    8.1588   10.1026   24.8749 N   0  0  0  0  0  0  0  0  0  0  0  0
    8.9283    9.5017   23.8057 C   0  0  0  0  0  0  0  0  0  0  0  0
    8.3220   11.3448   25.4189 C   0  0  0  0  0  0  0  0  0  0  0  0
    9.3769   12.2771   25.0209 C   0  0  0  0  0  0  0  0  0  0  0  0
    3.9929   15.0171   25.2589 C   0  0  0  0  0  0  0  0  0  0  0  0
    3.2187   16.1833   25.2686 C   0  0  0  0  0  0  0  0  0  0  0  0
    1.9550   16.2154   25.8659 C   0  0  0  0  0  0  0  0  0  0  0  0
    1.4437   15.0858   26.5150 C   0  0  0  0  0  0  0  0  0  0  0  0
    0.1976   15.1131   27.1602 C   0  0  0  0  0  0  0  0  0  0  0  0
   -0.2706   13.9929   27.8451 C   0  0  0  0  0  0  0  0  0  0  0  0
    0.5005   12.8358   27.8969 C   0  0  0  0  0  0  0  0  0  0  0  0
    1.7311   12.7889   27.2443 C   0  0  0  0  0  0  0  0  0  0  0  0
    2.2125   13.9034   26.5392 C   0  0  0  0  0  0  0  0  0  0  0  0
    3.4544   13.8744   25.8789 C   0  0  0  0  0  0  0  0  0  0  0  0
  1  2  1  0
  2  3  1  0
  3  4  1  1
  3  5  1  0
  5  6  1  1
  5  7  1  0
  7  8  2  0
  7  9  1  0
  9 10  1  0
 11 10  1  6
 11 12  1  0
 12 13  1  0
 13 14  2  0
 13 15  1  0
 15 16  1  0
 16 17  1  0
 17 18  1  0
 17 19  2  0
 19 20  1  0
 20 21  1  0
 20 22  1  0
 22 23  1  0
 11 24  1  0
 24 25  2  0
 25 26  1  0
 26 27  2  0
 27 28  1  0
 28 29  2  0
 29 30  1  0
 30 31  2  0
 31 32  1  0
 32 33  2  0
 22 16  2  0
 33 24  1  0
 32 27  1  0
M  END
>  <Crystalforms alias>  (47) 
nan

>  <original ID>  (47) 
YUJRUUDRDNZMAX-UWSIMGETSA-N

>  <alias>  (47) 
None

>  <distance_score>  (47) 
0.469972

>  <CanonSites upload name>  (47) 
nan

>  <CanonSites alias>  (47) 
nan

>  <ConformerSites alias>  (47) 
nan

>  <observation_longname>  (47) 
nan

>  <CrystalformSites alias>  (47) 
nan

>  <tags>  (47) 
[]

>  <ref_mols>  (47) 
A1346a

>  <ref_pdb>  (47) 
A1346a

>  <Quatassemblies upload name>  (47) 
nan

>  <inchikey>  (47) 
YUJRUUDRDNZMAX-UWSIMGETSA-N

>  <Experiment code>  (47) 
nan

>  <Quatassemblies alias>  (47) 
nan

>  <Crystalforms upload name>  (47) 
nan

>  <Centroid res>  (47) 
nan

>  <ConformerSites upload name>  (47) 
nan

>  <energy_score>  (47) 
-35.246855

>  <original SMILES>  (47) 
CO[C@H](C)[C@H](N)C(=O)NC[C@H](NC(=O)Cc1c(C)nn(C)c1C)c1ccc2ccccc2c1

>  <exports>  (47) 
nan

>  <CrystalformSites upload name>  (47) 
nan

>  <name>  (47) 
YUJRUUDRDNZMAX-UWSIMGETSA-N

>  <HIPPO ID>  (47) 
31920

$$$$
YUJRUUDRDNZMAX-OWSXEPHWSA-N
     RDKit          3D

 33 35  0  0  0  0  0  0  0  0999 V2000
   10.4790   15.2771   18.9005 C   0  0  0  0  0  0  0  0  0  0  0  0
    9.4999   15.4219   19.9051 O   0  0  0  0  0  0  0  0  0  0  0  0
    9.6055   14.5039   20.9846 C   0  0  1  0  0  0  0  0  0  0  0  0
   11.0540   14.3944   21.5006 C   0  0  0  0  0  0  0  0  0  0  0  0
    8.6154   15.0254   22.0426 C   0  0  2  0  0  0  0  0  0  0  0  0
    8.9739   14.5923   23.4018 N   0  0  0  0  0  0  0  0  0  0  0  0
    7.1627   14.4967   21.9267 C   0  0  0  0  0  0  0  0  0  0  0  0
    6.8994   13.3012   21.7817 O   0  0  0  0  0  0  0  0  0  0  0  0
    6.1993   15.4023   22.3080 N   0  0  0  0  0  0  0  0  0  0  0  0
    4.9912   14.9816   23.0012 C   0  0  0  0  0  0  0  0  0  0  0  0
    5.1846   14.9626   24.5426 C   0  0  2  0  0  0  0  0  0  0  0  0
    6.0842   13.8982   24.9940 N   0  0  0  0  0  0  0  0  0  0  0  0
    6.9410   14.0978   26.0452 C   0  0  0  0  0  0  0  0  0  0  0  0
    7.0847   15.1934   26.5969 O   0  0  0  0  0  0  0  0  0  0  0  0
    7.7238   12.9258   26.5926 C   0  0  0  0  0  0  0  0  0  0  0  0
    7.7567   11.6449   25.8347 C   0  0  0  0  0  0  0  0  0  0  0  0
    6.9405   10.4991   26.0341 C   0  0  0  0  0  0  0  0  0  0  0  0
    5.8323   10.3115   27.0015 C   0  0  0  0  0  0  0  0  0  0  0  0
    7.3206    9.4777   25.2628 N   0  0  0  0  0  0  0  0  0  0  0  0
    8.3401    9.9607   24.5328 N   0  0  0  0  0  0  0  0  0  0  0  0
    8.9909    9.1351   23.5380 C   0  0  0  0  0  0  0  0  0  0  0  0
    8.6830   11.2355   24.8921 C   0  0  0  0  0  0  0  0  0  0  0  0
    9.8835   11.8830   24.3385 C   0  0  0  0  0  0  0  0  0  0  0  0
    3.8487   14.9336   25.2784 C   0  0  0  0  0  0  0  0  0  0  0  0
    3.0864   16.1080   25.3506 C   0  0  0  0  0  0  0  0  0  0  0  0
    1.8560   16.1342   26.0086 C   0  0  0  0  0  0  0  0  0  0  0  0
    1.3755   14.9928   26.6597 C   0  0  0  0  0  0  0  0  0  0  0  0
    0.1562   15.0095   27.3528 C   0  0  0  0  0  0  0  0  0  0  0  0
   -0.2840   13.8786   28.0385 C   0  0  0  0  0  0  0  0  0  0  0  0
    0.4905   12.7225   28.0456 C   0  0  0  0  0  0  0  0  0  0  0  0
    1.6959   12.6864   27.3466 C   0  0  0  0  0  0  0  0  0  0  0  0
    2.1465   13.8098   26.6362 C   0  0  0  0  0  0  0  0  0  0  0  0
    3.3549   13.7872   25.9176 C   0  0  0  0  0  0  0  0  0  0  0  0
  1  2  1  0
  2  3  1  0
  3  4  1  1
  3  5  1  0
  5  6  1  1
  5  7  1  0
  7  8  2  0
  7  9  1  0
  9 10  1  0
 11 10  1  6
 11 12  1  0
 12 13  1  0
 13 14  2  0
 13 15  1  0
 15 16  1  0
 16 17  1  0
 17 18  1  0
 17 19  2  0
 19 20  1  0
 20 21  1  0
 20 22  1  0
 22 23  1  0
 11 24  1  0
 24 25  2  0
 25 26  1  0
 26 27  2  0
 27 28  1  0
 28 29  2  0
 29 30  1  0
 30 31  2  0
 31 32  1  0
 32 33  2  0
 22 16  2  0
 33 24  1  0
 32 27  1  0
M  END
>  <Crystalforms alias>  (48) 
nan

>  <original ID>  (48) 
YUJRUUDRDNZMAX-OWSXEPHWSA-N

>  <alias>  (48) 
None

>  <distance_score>  (48) 
0.2359

>  <CanonSites upload name>  (48) 
nan

>  <CanonSites alias>  (48) 
nan

>  <ConformerSites alias>  (48) 
nan

>  <observation_longname>  (48) 
nan

>  <CrystalformSites alias>  (48) 
nan

>  <tags>  (48) 
[]

>  <ref_mols>  (48) 
A1346a

>  <ref_pdb>  (48) 
A1346a

>  <Quatassemblies upload name>  (48) 
nan

>  <inchikey>  (48) 
YUJRUUDRDNZMAX-OWSXEPHWSA-N

>  <Experiment code>  (48) 
nan

>  <Quatassemblies alias>  (48) 
nan

>  <Crystalforms upload name>  (48) 
nan

>  <Centroid res>  (48) 
nan

>  <ConformerSites upload name>  (48) 
nan

>  <energy_score>  (48) 
-29.467384

>  <original SMILES>  (48) 
CO[C@@H](C)[C@H](N)C(=O)NC[C@H](NC(=O)Cc1c(C)nn(C)c1C)c1ccc2ccccc2c1

>  <exports>  (48) 
nan

>  <CrystalformSites upload name>  (48) 
nan

>  <name>  (48) 
YUJRUUDRDNZMAX-OWSXEPHWSA-N

>  <HIPPO ID>  (48) 
31921

$$$$
YUJRUUDRDNZMAX-BSDZUQITSA-N
     RDKit          3D

 33 35  0  0  0  0  0  0  0  0999 V2000
   11.1073   14.8850   18.9196 C   0  0  0  0  0  0  0  0  0  0  0  0
   10.5916   15.0771   20.2192 O   0  0  0  0  0  0  0  0  0  0  0  0
    9.1973   15.4132   20.2671 C   0  0  2  0  0  0  0  0  0  0  0  0
    8.9233   16.7196   19.5265 C   0  0  0  0  0  0  0  0  0  0  0  0
    8.8006   15.5044   21.7459 C   0  0  2  0  0  0  0  0  0  0  0  0
    9.8053   14.8189   22.6055 N   0  0  0  0  0  0  0  0  0  0  0  0
    7.3921   14.8990   22.0601 C   0  0  0  0  0  0  0  0  0  0  0  0
    7.0160   13.7719   21.7398 O   0  0  0  0  0  0  0  0  0  0  0  0
    6.6339   15.7665   22.8107 N   0  0  0  0  0  0  0  0  0  0  0  0
    5.2703   15.6077   23.2587 C   0  0  0  0  0  0  0  0  0  0  0  0
    4.8951   14.4672   24.2220 C   0  0  1  0  0  0  0  0  0  0  0  0
    5.9767   13.7283   24.8561 N   0  0  0  0  0  0  0  0  0  0  0  0
    6.7689   14.1657   25.8782 C   0  0  0  0  0  0  0  0  0  0  0  0
    6.7815   15.3241   26.2922 O   0  0  0  0  0  0  0  0  0  0  0  0
    7.6059   13.1084   26.5883 C   0  0  0  0  0  0  0  0  0  0  0  0
    7.7528   11.7826   25.9102 C   0  0  0  0  0  0  0  0  0  0  0  0
    7.0216   10.5853   26.1352 C   0  0  0  0  0  0  0  0  0  0  0  0
    5.9124   10.3440   27.0894 C   0  0  0  0  0  0  0  0  0  0  0  0
    7.4565    9.5845   25.3633 N   0  0  0  0  0  0  0  0  0  0  0  0
    8.4298   10.1322   24.6125 N   0  0  0  0  0  0  0  0  0  0  0  0
    9.1034    9.3377   23.6099 C   0  0  0  0  0  0  0  0  0  0  0  0
    8.6569   11.4456   24.9195 C   0  0  0  0  0  0  0  0  0  0  0  0
    9.6840   12.2622   24.2412 C   0  0  0  0  0  0  0  0  0  0  0  0
    3.7190   14.7040   25.1774 C   0  0  0  0  0  0  0  0  0  0  0  0
    3.0622   15.9306   25.3286 C   0  0  0  0  0  0  0  0  0  0  0  0
    1.9022   16.0433   26.1024 C   0  0  0  0  0  0  0  0  0  0  0  0
    1.3867   14.9376   26.7864 C   0  0  0  0  0  0  0  0  0  0  0  0
    0.2104   15.0289   27.5452 C   0  0  0  0  0  0  0  0  0  0  0  0
   -0.2694   13.9219   28.2438 C   0  0  0  0  0  0  0  0  0  0  0  0
    0.4293   12.7191   28.2077 C   0  0  0  0  0  0  0  0  0  0  0  0
    1.5955   12.6132   27.4516 C   0  0  0  0  0  0  0  0  0  0  0  0
    2.0752   13.7098   26.7188 C   0  0  0  0  0  0  0  0  0  0  0  0
    3.2197   13.6110   25.9105 C   0  0  0  0  0  0  0  0  0  0  0  0
  1  2  1  0
  2  3  1  0
  3  4  1  1
  3  5  1  0
  5  6  1  1
  5  7  1  0
  7  8  2  0
  7  9  1  0
  9 10  1  0
 11 10  1  1
 11 12  1  0
 12 13  1  0
 13 14  2  0
 13 15  1  0
 15 16  1  0
 16 17  1  0
 17 18  1  0
 17 19  2  0
 19 20  1  0
 20 21  1  0
 20 22  1  0
 22 23  1  0
 11 24  1  0
 24 25  2  0
 25 26  1  0
 26 27  2  0
 27 28  1  0
 28 29  2  0
 29 30  1  0
 30 31  2  0
 31 32  1  0
 32 33  2  0
 22 16  2  0
 33 24  1  0
 32 27  1  0
M  END
>  <Crystalforms alias>  (49) 
nan

>  <original ID>  (49) 
YUJRUUDRDNZMAX-BSDZUQITSA-N

>  <alias>  (49) 
None

>  <distance_score>  (49) 
0.409047

>  <CanonSites upload name>  (49) 
nan

>  <CanonSites alias>  (49) 
nan

>  <ConformerSites alias>  (49) 
nan

>  <observation_longname>  (49) 
nan

>  <CrystalformSites alias>  (49) 
nan

>  <tags>  (49) 
[]

>  <ref_mols>  (49) 
A1346a

>  <ref_pdb>  (49) 
A1346a

>  <Quatassemblies upload name>  (49) 
nan

>  <inchikey>  (49) 
YUJRUUDRDNZMAX-BSDZUQITSA-N

>  <Experiment code>  (49) 
nan

>  <Quatassemblies alias>  (49) 
nan

>  <Crystalforms upload name>  (49) 
nan

>  <Centroid res>  (49) 
nan

>  <ConformerSites upload name>  (49) 
nan

>  <energy_score>  (49) 
-39.39179

>  <original SMILES>  (49) 
CO[C@H](C)[C@H](N)C(=O)NC[C@@H](NC(=O)Cc1c(C)nn(C)c1C)c1ccc2ccccc2c1

>  <exports>  (49) 
nan

>  <CrystalformSites upload name>  (49) 
nan

>  <name>  (49) 
YUJRUUDRDNZMAX-BSDZUQITSA-N

>  <HIPPO ID>  (49) 
31922

$$$$
YUJRUUDRDNZMAX-YJGRUCBDSA-N
     RDKit          3D

 33 35  0  0  0  0  0  0  0  0999 V2000
    9.0702   17.5269   18.9648 C   0  0  0  0  0  0  0  0  0  0  0  0
    9.0712   16.8945   20.2414 O   0  0  0  0  0  0  0  0  0  0  0  0
    9.1735   15.4659   20.2010 C   0  0  1  0  0  0  0  0  0  0  0  0
   10.4641   15.0251   19.5209 C   0  0  0  0  0  0  0  0  0  0  0  0
    9.0342   14.9557   21.6525 C   0  0  2  0  0  0  0  0  0  0  0  0
    9.9300   13.8504   22.0327 N   0  0  0  0  0  0  0  0  0  0  0  0
    7.5487   14.5865   22.0240 C   0  0  0  0  0  0  0  0  0  0  0  0
    7.0384   13.4790   21.8530 O   0  0  0  0  0  0  0  0  0  0  0  0
    6.8766   15.6263   22.6141 N   0  0  0  0  0  0  0  0  0  0  0  0
    5.5551   15.6360   23.2248 C   0  0  0  0  0  0  0  0  0  0  0  0
    5.0694   14.4691   24.1071 C   0  0  1  0  0  0  0  0  0  0  0  0
    6.0865   13.7219   24.8282 N   0  0  0  0  0  0  0  0  0  0  0  0
    6.7954   14.1571   25.9118 C   0  0  0  0  0  0  0  0  0  0  0  0
    6.8511   15.3304   26.2754 O   0  0  0  0  0  0  0  0  0  0  0  0
    7.4703   13.0751   26.7470 C   0  0  0  0  0  0  0  0  0  0  0  0
    7.6879   11.7658   26.0625 C   0  0  0  0  0  0  0  0  0  0  0  0
    6.9595   10.5572   26.1953 C   0  0  0  0  0  0  0  0  0  0  0  0
    5.8087   10.2658   27.0824 C   0  0  0  0  0  0  0  0  0  0  0  0
    7.4359    9.6023   25.3922 N   0  0  0  0  0  0  0  0  0  0  0  0
    8.4380   10.1940   24.7124 N   0  0  0  0  0  0  0  0  0  0  0  0
    9.1284    9.4629   23.6727 C   0  0  0  0  0  0  0  0  0  0  0  0
    8.6636   11.4796   25.1263 C   0  0  0  0  0  0  0  0  0  0  0  0
    9.7313   12.3601   24.6073 C   0  0  0  0  0  0  0  0  0  0  0  0
    3.8498   14.7264   25.0068 C   0  0  0  0  0  0  0  0  0  0  0  0
    3.2204   15.9679   25.1310 C   0  0  0  0  0  0  0  0  0  0  0  0
    2.0526   16.1205   25.8895 C   0  0  0  0  0  0  0  0  0  0  0  0
    1.5004   15.0392   26.5870 C   0  0  0  0  0  0  0  0  0  0  0  0
    0.3213   15.1706   27.3383 C   0  0  0  0  0  0  0  0  0  0  0  0
   -0.1910   14.0876   28.0523 C   0  0  0  0  0  0  0  0  0  0  0  0
    0.4785   12.8685   28.0406 C   0  0  0  0  0  0  0  0  0  0  0  0
    1.6461   12.7230   27.2928 C   0  0  0  0  0  0  0  0  0  0  0  0
    2.1575   13.7942   26.5424 C   0  0  0  0  0  0  0  0  0  0  0  0
    3.3071   13.6556   25.7440 C   0  0  0  0  0  0  0  0  0  0  0  0
  1  2  1  0
  2  3  1  0
  3  4  1  1
  3  5  1  0
  5  6  1  6
  5  7  1  0
  7  8  2  0
  7  9  1  0
  9 10  1  0
 11 10  1  1
 11 12  1  0
 12 13  1  0
 13 14  2  0
 13 15  1  0
 15 16  1  0
 16 17  1  0
 17 18  1  0
 17 19  2  0
 19 20  1  0
 20 21  1  0
 20 22  1  0
 22 23  1  0
 11 24  1  0
 24 25  2  0
 25 26  1  0
 26 27  2  0
 27 28  1  0
 28 29  2  0
 29 30  1  0
 30 31  2  0
 31 32  1  0
 32 33  2  0
 22 16  2  0
 33 24  1  0
 32 27  1  0
M  END
>  <Crystalforms alias>  (50) 
nan

>  <original ID>  (50) 
YUJRUUDRDNZMAX-YJGRUCBDSA-N

>  <alias>  (50) 
None

>  <distance_score>  (50) 
0.573639

>  <CanonSites upload name>  (50) 
nan

>  <CanonSites alias>  (50) 
nan

>  <ConformerSites alias>  (50) 
nan

>  <observation_longname>  (50) 
nan

>  <CrystalformSites alias>  (50) 
nan

>  <tags>  (50) 
[]

>  <ref_mols>  (50) 
A1346a

>  <ref_pdb>  (50) 
A1346a

>  <Quatassemblies upload name>  (50) 
nan

>  <inchikey>  (50) 
YUJRUUDRDNZMAX-YJGRUCBDSA-N

>  <Experiment code>  (50) 
nan

>  <Quatassemblies alias>  (50) 
nan

>  <Crystalforms upload name>  (50) 
nan

>  <Centroid res>  (50) 
nan

>  <ConformerSites upload name>  (50) 
nan

>  <energy_score>  (50) 
-38.525739

>  <original SMILES>  (50) 
CO[C@@H](C)[C@H](N)C(=O)NC[C@@H](NC(=O)Cc1c(C)nn(C)c1C)c1ccc2ccccc2c1

>  <exports>  (50) 
nan

>  <CrystalformSites upload name>  (50) 
nan

>  <name>  (50) 
YUJRUUDRDNZMAX-YJGRUCBDSA-N

>  <HIPPO ID>  (50) 
31923

$$$$
YUJRUUDRDNZMAX-BSDZUQITSA-N
     RDKit          3D

 33 35  0  0  0  0  0  0  0  0999 V2000
   11.8102   14.6309   23.1289 C   0  0  0  0  0  0  0  0  0  0  0  0
   10.4840   15.0002   22.8005 O   0  0  0  0  0  0  0  0  0  0  0  0
    9.9183   14.3258   21.6624 C   0  0  2  0  0  0  0  0  0  0  0  0
   10.8374   14.4034   20.4513 C   0  0  0  0  0  0  0  0  0  0  0  0
    8.5782   15.0098   21.3177 C   0  0  2  0  0  0  0  0  0  0  0  0
    8.7075   16.4879   21.4013 N   0  0  0  0  0  0  0  0  0  0  0  0
    7.3915   14.5240   22.1888 C   0  0  0  0  0  0  0  0  0  0  0  0
    7.2113   13.3449   22.4870 O   0  0  0  0  0  0  0  0  0  0  0  0
    6.4890   15.5283   22.4444 N   0  0  0  0  0  0  0  0  0  0  0  0
    5.6387   15.6906   23.6157 C   0  0  0  0  0  0  0  0  0  0  0  0
    5.0023   14.4732   24.2957 C   0  0  1  0  0  0  0  0  0  0  0  0
    5.9731   13.6349   24.9928 N   0  0  0  0  0  0  0  0  0  0  0  0
    6.7294   14.0358   26.0616 C   0  0  0  0  0  0  0  0  0  0  0  0
    6.7479   15.1837   26.5059 O   0  0  0  0  0  0  0  0  0  0  0  0
    7.5339   12.9621   26.7682 C   0  0  0  0  0  0  0  0  0  0  0  0
    7.7162   11.6795   26.0340 C   0  0  0  0  0  0  0  0  0  0  0  0
    6.9805   10.4765   26.1634 C   0  0  0  0  0  0  0  0  0  0  0  0
    5.8395   10.1885   27.0645 C   0  0  0  0  0  0  0  0  0  0  0  0
    7.4427    9.5264   25.3471 N   0  0  0  0  0  0  0  0  0  0  0  0
    8.4347   10.1207   24.6551 N   0  0  0  0  0  0  0  0  0  0  0  0
    9.1233    9.3859   23.6178 C   0  0  0  0  0  0  0  0  0  0  0  0
    8.6555   11.4109   25.0562 C   0  0  0  0  0  0  0  0  0  0  0  0
    9.6876   12.3039   24.4924 C   0  0  0  0  0  0  0  0  0  0  0  0
    3.7871   14.7335   25.1951 C   0  0  0  0  0  0  0  0  0  0  0  0
    3.1675   15.9799   25.3323 C   0  0  0  0  0  0  0  0  0  0  0  0
    1.9883   16.1251   26.0724 C   0  0  0  0  0  0  0  0  0  0  0  0
    1.4169   15.0325   26.7363 C   0  0  0  0  0  0  0  0  0  0  0  0
    0.2301   15.1581   27.4746 C   0  0  0  0  0  0  0  0  0  0  0  0
   -0.3000   14.0639   28.1579 C   0  0  0  0  0  0  0  0  0  0  0  0
    0.3567   12.8378   28.1250 C   0  0  0  0  0  0  0  0  0  0  0  0
    1.5294   12.6959   27.3857 C   0  0  0  0  0  0  0  0  0  0  0  0
    2.0608   13.7810   26.6719 C   0  0  0  0  0  0  0  0  0  0  0  0
    3.2193   13.6485   25.8904 C   0  0  0  0  0  0  0  0  0  0  0  0
  1  2  1  0
  2  3  1  0
  3  4  1  6
  3  5  1  0
  5  6  1  1
  5  7  1  0
  7  8  2  0
  7  9  1  0
  9 10  1  0
 11 10  1  1
 11 12  1  0
 12 13  1  0
 13 14  2  0
 13 15  1  0
 15 16  1  0
 16 17  1  0
 17 18  1  0
 17 19  2  0
 19 20  1  0
 20 21  1  0
 20 22  1  0
 22 23  1  0
 11 24  1  0
 24 25  2  0
 25 26  1  0
 26 27  2  0
 27 28  1  0
 28 29  2  0
 29 30  1  0
 30 31  2  0
 31 32  1  0
 32 33  2  0
 22 16  2  0
 33 24  1  0
 32 27  1  0
M  END
>  <Crystalforms alias>  (51) 
nan

>  <original ID>  (51) 
YUJRUUDRDNZMAX-BSDZUQITSA-N

>  <alias>  (51) 
None

>  <distance_score>  (51) 
0.398551

>  <CanonSites upload name>  (51) 
nan

>  <CanonSites alias>  (51) 
nan

>  <ConformerSites alias>  (51) 
nan

>  <observation_longname>  (51) 
nan

>  <CrystalformSites alias>  (51) 
nan

>  <tags>  (51) 
[]

>  <ref_mols>  (51) 
A1346a

>  <ref_pdb>  (51) 
A1346a

>  <Quatassemblies upload name>  (51) 
nan

>  <inchikey>  (51) 
YUJRUUDRDNZMAX-BSDZUQITSA-N

>  <Experiment code>  (51) 
nan

>  <Quatassemblies alias>  (51) 
nan

>  <Crystalforms upload name>  (51) 
nan

>  <Centroid res>  (51) 
nan

>  <ConformerSites upload name>  (51) 
nan

>  <energy_score>  (51) 
-45.464182

>  <original SMILES>  (51) 
CO[C@H](C)[C@H](N)C(=O)NC[C@@H](NC(=O)Cc1c(C)nn(C)c1C)c1ccc2ccccc2c1

>  <exports>  (51) 
nan

>  <CrystalformSites upload name>  (51) 
nan

>  <name>  (51) 
YUJRUUDRDNZMAX-BSDZUQITSA-N

>  <HIPPO ID>  (51) 
31924

$$$$
YUJRUUDRDNZMAX-YJGRUCBDSA-N
     RDKit          3D

 33 35  0  0  0  0  0  0  0  0999 V2000
    7.9290   18.7408   20.9961 C   0  0  0  0  0  0  0  0  0  0  0  0
    8.5607   17.6685   21.7030 O   0  0  0  0  0  0  0  0  0  0  0  0
    8.5111   16.4755   20.9232 C   0  0  1  0  0  0  0  0  0  0  0  0
    9.3790   16.5424   19.6689 C   0  0  0  0  0  0  0  0  0  0  0  0
    8.7097   15.2148   21.7867 C   0  0  2  0  0  0  0  0  0  0  0  0
    9.4271   14.1377   21.1271 N   0  0  0  0  0  0  0  0  0  0  0  0
    7.2978   14.7014   22.2324 C   0  0  0  0  0  0  0  0  0  0  0  0
    6.8429   13.5810   21.9971 O   0  0  0  0  0  0  0  0  0  0  0  0
    6.6146   15.6588   22.9431 N   0  0  0  0  0  0  0  0  0  0  0  0
    5.2455   15.5941   23.3893 C   0  0  0  0  0  0  0  0  0  0  0  0
    4.8273   14.4512   24.3247 C   0  0  1  0  0  0  0  0  0  0  0  0
    5.8993   13.6999   24.9643 N   0  0  0  0  0  0  0  0  0  0  0  0
    6.7526   14.1660   25.9222 C   0  0  0  0  0  0  0  0  0  0  0  0
    6.7644   15.3242   26.3355 O   0  0  0  0  0  0  0  0  0  0  0  0
    7.6854   13.1436   26.5528 C   0  0  0  0  0  0  0  0  0  0  0  0
    7.8305   11.8335   25.8503 C   0  0  0  0  0  0  0  0  0  0  0  0
    7.1142   10.6296   26.0888 C   0  0  0  0  0  0  0  0  0  0  0  0
    6.0164   10.3776   27.0546 C   0  0  0  0  0  0  0  0  0  0  0  0
    7.5521    9.6338   25.3155 N   0  0  0  0  0  0  0  0  0  0  0  0
    8.4936   10.1972   24.5343 N   0  0  0  0  0  0  0  0  0  0  0  0
    9.1663    9.3881   23.5438 C   0  0  0  0  0  0  0  0  0  0  0  0
    8.6991   11.5230   24.8168 C   0  0  0  0  0  0  0  0  0  0  0  0
    9.6772   12.3718   24.0911 C   0  0  0  0  0  0  0  0  0  0  0  0
    3.6515   14.7006   25.2674 C   0  0  0  0  0  0  0  0  0  0  0  0
    2.9896   15.9274   25.3897 C   0  0  0  0  0  0  0  0  0  0  0  0
    1.8232   16.0457   26.1513 C   0  0  0  0  0  0  0  0  0  0  0  0
    1.3050   14.9450   26.8427 C   0  0  0  0  0  0  0  0  0  0  0  0
    0.1221   15.0396   27.5897 C   0  0  0  0  0  0  0  0  0  0  0  0
   -0.3619   13.9363   28.2918 C   0  0  0  0  0  0  0  0  0  0  0  0
    0.3373   12.7331   28.2692 C   0  0  0  0  0  0  0  0  0  0  0  0
    1.5099   12.6226   27.5247 C   0  0  0  0  0  0  0  0  0  0  0  0
    1.9952   13.7168   26.7937 C   0  0  0  0  0  0  0  0  0  0  0  0
    3.1486   13.6126   26.0038 C   0  0  0  0  0  0  0  0  0  0  0  0
  1  2  1  0
  2  3  1  0
  3  4  1  6
  3  5  1  0
  5  6  1  6
  5  7  1  0
  7  8  2  0
  7  9  1  0
  9 10  1  0
 11 10  1  1
 11 12  1  0
 12 13  1  0
 13 14  2  0
 13 15  1  0
 15 16  1  0
 16 17  1  0
 17 18  1  0
 17 19  2  0
 19 20  1  0
 20 21  1  0
 20 22  1  0
 22 23  1  0
 11 24  1  0
 24 25  2  0
 25 26  1  0
 26 27  2  0
 27 28  1  0
 28 29  2  0
 29 30  1  0
 30 31  2  0
 31 32  1  0
 32 33  2  0
 22 16  2  0
 33 24  1  0
 32 27  1  0
M  END
>  <Crystalforms alias>  (52) 
nan

>  <original ID>  (52) 
YUJRUUDRDNZMAX-YJGRUCBDSA-N

>  <alias>  (52) 
None

>  <distance_score>  (52) 
0.380848

>  <CanonSites upload name>  (52) 
nan

>  <CanonSites alias>  (52) 
nan

>  <ConformerSites alias>  (52) 
nan

>  <observation_longname>  (52) 
nan

>  <CrystalformSites alias>  (52) 
nan

>  <tags>  (52) 
[]

>  <ref_mols>  (52) 
A1346a

>  <ref_pdb>  (52) 
A1346a

>  <Quatassemblies upload name>  (52) 
nan

>  <inchikey>  (52) 
YUJRUUDRDNZMAX-YJGRUCBDSA-N

>  <Experiment code>  (52) 
nan

>  <Quatassemblies alias>  (52) 
nan

>  <Crystalforms upload name>  (52) 
nan

>  <Centroid res>  (52) 
nan

>  <ConformerSites upload name>  (52) 
nan

>  <energy_score>  (52) 
-32.527314

>  <original SMILES>  (52) 
CO[C@@H](C)[C@H](N)C(=O)NC[C@@H](NC(=O)Cc1c(C)nn(C)c1C)c1ccc2ccccc2c1

>  <exports>  (52) 
nan

>  <CrystalformSites upload name>  (52) 
nan

>  <name>  (52) 
YUJRUUDRDNZMAX-YJGRUCBDSA-N

>  <HIPPO ID>  (52) 
31925

$$$$
MSVHVDFYJOFNAC-PFATUAPWSA-N
     RDKit          3D

 34 37  0  0  0  0  0  0  0  0999 V2000
    5.7532   10.3516   27.0469 C   0  0  0  0  0  0  0  0  0  0  0  0
    6.8561   10.4391   26.0610 C   0  0  0  0  0  0  0  0  0  0  0  0
    7.1490    9.3765   25.3023 N   0  0  0  0  0  0  0  0  0  0  0  0
    8.2005    9.7678   24.5663 N   0  0  0  0  0  0  0  0  0  0  0  0
    8.8192    8.9166   23.5705 C   0  0  0  0  0  0  0  0  0  0  0  0
    8.6486   11.0026   24.9256 C   0  0  0  0  0  0  0  0  0  0  0  0
    9.9391   11.4401   24.3967 C   0  0  0  0  0  0  0  0  0  0  0  0
    7.7382   11.5298   25.8188 C   0  0  0  0  0  0  0  0  0  0  0  0
    7.7428   12.8775   26.4700 C   0  0  0  0  0  0  0  0  0  0  0  0
    6.8933   13.9710   25.8260 C   0  0  0  0  0  0  0  0  0  0  0  0
    6.9452   15.1192   26.2688 O   0  0  0  0  0  0  0  0  0  0  0  0
    6.1114   13.6079   24.7669 N   0  0  0  0  0  0  0  0  0  0  0  0
    5.1038   14.4339   24.1059 C   0  0  2  0  0  0  0  0  0  0  0  0
    5.6376   15.6384   23.2993 C   0  0  0  0  0  0  0  0  0  0  0  0
    6.8545   15.5557   22.4925 N   0  0  0  0  0  0  0  0  0  0  0  0
    7.3646   14.4563   21.8602 C   0  0  0  0  0  0  0  0  0  0  0  0
    6.7938   13.3654   21.8531 O   0  0  0  0  0  0  0  0  0  0  0  0
    8.8052   14.6394   21.2693 C   0  0  1  0  0  0  0  0  0  0  0  0
    8.8292   15.5195   20.1175 N   0  0  0  0  0  0  0  0  0  0  0  0
    9.8202   15.1030   22.2916 C   0  0  2  0  0  0  0  0  0  0  0  0
   11.2567   14.6990   22.0398 C   0  0  0  0  0  0  0  0  0  0  0  0
   11.8552   14.8058   23.4237 C   0  0  0  0  0  0  0  0  0  0  0  0
   10.8116   14.5178   24.3603 O   0  0  0  0  0  0  0  0  0  0  0  0
    9.6012   14.4154   23.6104 C   0  0  0  0  0  0  0  0  0  0  0  0
    3.9071   14.7059   25.0306 C   0  0  0  0  0  0  0  0  0  0  0  0
    3.2867   15.9537   25.1455 C   0  0  0  0  0  0  0  0  0  0  0  0
    2.1177   16.1202   25.8995 C   0  0  0  0  0  0  0  0  0  0  0  0
    1.5506   15.0454   26.5954 C   0  0  0  0  0  0  0  0  0  0  0  0
    0.3657   15.1877   27.3360 C   0  0  0  0  0  0  0  0  0  0  0  0
   -0.1653   14.1087   28.0425 C   0  0  0  0  0  0  0  0  0  0  0  0
    0.4911   12.8825   28.0344 C   0  0  0  0  0  0  0  0  0  0  0  0
    1.6649   12.7265   27.2985 C   0  0  0  0  0  0  0  0  0  0  0  0
    2.1954   13.7937   26.5556 C   0  0  0  0  0  0  0  0  0  0  0  0
    3.3489   13.6426   25.7647 C   0  0  0  0  0  0  0  0  0  0  0  0
  1  2  1  0
  2  3  2  0
  3  4  1  0
  4  5  1  0
  4  6  1  0
  6  7  1  0
  6  8  2  0
  8  9  1  0
  9 10  1  0
 10 11  2  0
 10 12  1  0
 12 13  1  0
 13 14  1  1
 14 15  1  0
 15 16  1  0
 16 17  2  0
 16 18  1  0
 18 19  1  6
 18 20  1  0
 20 21  1  6
 21 22  1  0
 22 23  1  0
 23 24  1  0
 13 25  1  0
 25 26  2  0
 26 27  1  0
 27 28  2  0
 28 29  1  0
 29 30  2  0
 30 31  1  0
 31 32  2  0
 32 33  1  0
 33 34  2  0
  8  2  1  0
 24 20  1  0
 34 25  1  0
 33 28  1  0
M  END
>  <Crystalforms alias>  (53) 
nan

>  <original ID>  (53) 
MSVHVDFYJOFNAC-PFATUAPWSA-N

>  <alias>  (53) 
None

>  <distance_score>  (53) 
0.455168

>  <CanonSites upload name>  (53) 
nan

>  <CanonSites alias>  (53) 
nan

>  <ConformerSites alias>  (53) 
nan

>  <observation_longname>  (53) 
nan

>  <CrystalformSites alias>  (53) 
nan

>  <tags>  (53) 
[]

>  <ref_mols>  (53) 
A1346a

>  <ref_pdb>  (53) 
A1346a

>  <Quatassemblies upload name>  (53) 
nan

>  <inchikey>  (53) 
MSVHVDFYJOFNAC-PFATUAPWSA-N

>  <Experiment code>  (53) 
nan

>  <Quatassemblies alias>  (53) 
nan

>  <Crystalforms upload name>  (53) 
nan

>  <Centroid res>  (53) 
nan

>  <ConformerSites upload name>  (53) 
nan

>  <energy_score>  (53) 
-23.916109

>  <original SMILES>  (53) 
Cc1nn(C)c(C)c1CC(=O)N[C@H](CNC(=O)[C@@H](N)[C@@H]1CCOC1)c1ccc2ccccc2c1

>  <exports>  (53) 
nan

>  <CrystalformSites upload name>  (53) 
nan

>  <name>  (53) 
MSVHVDFYJOFNAC-PFATUAPWSA-N

>  <HIPPO ID>  (53) 
32239

$$$$
MSVHVDFYJOFNAC-NMVJMZGASA-N
     RDKit          3D

 34 37  0  0  0  0  0  0  0  0999 V2000
    5.6271    9.9386   27.0421 C   0  0  0  0  0  0  0  0  0  0  0  0
    6.7786   10.3338   26.1987 C   0  0  0  0  0  0  0  0  0  0  0  0
    7.3244    9.4550   25.3556 N   0  0  0  0  0  0  0  0  0  0  0  0
    8.3202   10.1298   24.7523 N   0  0  0  0  0  0  0  0  0  0  0  0
    9.0799    9.4988   23.6943 C   0  0  0  0  0  0  0  0  0  0  0  0
    8.4753   11.3905   25.2618 C   0  0  0  0  0  0  0  0  0  0  0  0
    9.5227   12.3379   24.8461 C   0  0  0  0  0  0  0  0  0  0  0  0
    7.4518   11.5773   26.1705 C   0  0  0  0  0  0  0  0  0  0  0  0
    7.1574   12.7897   26.9806 C   0  0  0  0  0  0  0  0  0  0  0  0
    6.9024   14.0669   26.2065 C   0  0  0  0  0  0  0  0  0  0  0  0
    7.3213   15.1424   26.6364 O   0  0  0  0  0  0  0  0  0  0  0  0
    6.1004   13.9558   25.0956 N   0  0  0  0  0  0  0  0  0  0  0  0
    5.2622   15.0710   24.6665 C   0  0  1  0  0  0  0  0  0  0  0  0
    5.1434   15.1721   23.1270 C   0  0  0  0  0  0  0  0  0  0  0  0
    6.3487   15.7047   22.5027 N   0  0  0  0  0  0  0  0  0  0  0  0
    7.3269   14.8928   21.9901 C   0  0  0  0  0  0  0  0  0  0  0  0
    7.1930   13.6641   22.0198 O   0  0  0  0  0  0  0  0  0  0  0  0
    8.6189   15.6239   21.4455 C   0  0  2  0  0  0  0  0  0  0  0  0
    8.2889   16.6685   20.4860 N   0  0  0  0  0  0  0  0  0  0  0  0
    9.5635   14.5340   20.9424 C   0  0  2  0  0  0  0  0  0  0  0  0
   10.2703   13.9536   22.1448 C   0  0  0  0  0  0  0  0  0  0  0  0
   11.7108   14.2753   21.9259 C   0  0  0  0  0  0  0  0  0  0  0  0
   11.9070   14.4076   20.5283 O   0  0  0  0  0  0  0  0  0  0  0  0
   10.6675   14.8238   19.9475 C   0  0  0  0  0  0  0  0  0  0  0  0
    3.8874   15.0169   25.3383 C   0  0  0  0  0  0  0  0  0  0  0  0
    3.1051   16.1795   25.3825 C   0  0  0  0  0  0  0  0  0  0  0  0
    1.8535   16.1903   26.0011 C   0  0  0  0  0  0  0  0  0  0  0  0
    1.3672   15.0447   26.6404 C   0  0  0  0  0  0  0  0  0  0  0  0
    0.1306   15.0491   27.3024 C   0  0  0  0  0  0  0  0  0  0  0  0
   -0.3144   13.9145   27.9786 C   0  0  0  0  0  0  0  0  0  0  0  0
    0.4706   12.7657   28.0044 C   0  0  0  0  0  0  0  0  0  0  0  0
    1.6927   12.7411   27.3347 C   0  0  0  0  0  0  0  0  0  0  0  0
    2.1507   13.8705   26.6386 C   0  0  0  0  0  0  0  0  0  0  0  0
    3.3816   13.8625   25.9592 C   0  0  0  0  0  0  0  0  0  0  0  0
  1  2  1  0
  2  3  2  0
  3  4  1  0
  4  5  1  0
  4  6  1  0
  6  7  1  0
  6  8  2  0
  8  9  1  0
  9 10  1  0
 10 11  2  0
 10 12  1  0
 12 13  1  0
 13 14  1  6
 14 15  1  0
 15 16  1  0
 16 17  2  0
 16 18  1  0
 18 19  1  6
 18 20  1  0
 20 21  1  1
 21 22  1  0
 22 23  1  0
 23 24  1  0
 13 25  1  0
 25 26  2  0
 26 27  1  0
 27 28  2  0
 28 29  1  0
 29 30  2  0
 30 31  1  0
 31 32  2  0
 32 33  1  0
 33 34  2  0
  8  2  1  0
 24 20  1  0
 34 25  1  0
 33 28  1  0
M  END
>  <Crystalforms alias>  (54) 
nan

>  <original ID>  (54) 
MSVHVDFYJOFNAC-NMVJMZGASA-N

>  <alias>  (54) 
None

>  <distance_score>  (54) 
0.367443

>  <CanonSites upload name>  (54) 
nan

>  <CanonSites alias>  (54) 
nan

>  <ConformerSites alias>  (54) 
nan

>  <observation_longname>  (54) 
nan

>  <CrystalformSites alias>  (54) 
nan

>  <tags>  (54) 
[]

>  <ref_mols>  (54) 
A1346a

>  <ref_pdb>  (54) 
A1346a

>  <Quatassemblies upload name>  (54) 
nan

>  <inchikey>  (54) 
MSVHVDFYJOFNAC-NMVJMZGASA-N

>  <Experiment code>  (54) 
nan

>  <Quatassemblies alias>  (54) 
nan

>  <Crystalforms upload name>  (54) 
nan

>  <Centroid res>  (54) 
nan

>  <ConformerSites upload name>  (54) 
nan

>  <energy_score>  (54) 
-41.710138

>  <original SMILES>  (54) 
Cc1nn(C)c(C)c1CC(=O)N[C@@H](CNC(=O)[C@H](N)[C@@H]1CCOC1)c1ccc2ccccc2c1

>  <exports>  (54) 
nan

>  <CrystalformSites upload name>  (54) 
nan

>  <name>  (54) 
MSVHVDFYJOFNAC-NMVJMZGASA-N

>  <HIPPO ID>  (54) 
32240

$$$$
MSVHVDFYJOFNAC-PFATUAPWSA-N
     RDKit          3D

 34 37  0  0  0  0  0  0  0  0999 V2000
    5.6488    9.9866   27.1030 C   0  0  0  0  0  0  0  0  0  0  0  0
    6.8121   10.3377   26.2571 C   0  0  0  0  0  0  0  0  0  0  0  0
    7.3252    9.4377   25.4128 N   0  0  0  0  0  0  0  0  0  0  0  0
    8.3417   10.0770   24.8027 N   0  0  0  0  0  0  0  0  0  0  0  0
    9.0696    9.4342   23.7295 C   0  0  0  0  0  0  0  0  0  0  0  0
    8.5301   11.3348   25.3014 C   0  0  0  0  0  0  0  0  0  0  0  0
    9.5826   12.2632   24.8702 C   0  0  0  0  0  0  0  0  0  0  0  0
    7.5140   11.5636   26.2063 C   0  0  0  0  0  0  0  0  0  0  0  0
    7.2370   12.8377   26.9323 C   0  0  0  0  0  0  0  0  0  0  0  0
    6.6763   13.9635   26.0726 C   0  0  0  0  0  0  0  0  0  0  0  0
    6.8493   15.1351   26.4040 O   0  0  0  0  0  0  0  0  0  0  0  0
    5.9200   13.5674   25.0010 N   0  0  0  0  0  0  0  0  0  0  0  0
    4.9316   14.3829   24.3150 C   0  0  2  0  0  0  0  0  0  0  0  0
    5.4618   15.6562   23.6764 C   0  0  0  0  0  0  0  0  0  0  0  0
    6.6649   15.7146   22.8857 N   0  0  0  0  0  0  0  0  0  0  0  0
    7.2620   14.7828   22.0886 C   0  0  0  0  0  0  0  0  0  0  0  0
    6.9554   13.5927   22.0514 O   0  0  0  0  0  0  0  0  0  0  0  0
    8.3680   15.4041   21.1841 C   0  0  1  0  0  0  0  0  0  0  0  0
    8.2658   16.8782   21.0992 N   0  0  0  0  0  0  0  0  0  0  0  0
    9.8243   15.1283   21.4784 C   0  0  2  0  0  0  0  0  0  0  0  0
   10.5947   14.7366   20.2408 C   0  0  0  0  0  0  0  0  0  0  0  0
   11.8635   14.2263   20.8612 C   0  0  0  0  0  0  0  0  0  0  0  0
   11.5230   13.6435   22.1310 O   0  0  0  0  0  0  0  0  0  0  0  0
   10.1674   14.0079   22.4072 C   0  0  0  0  0  0  0  0  0  0  0  0
    3.7001   14.6084   25.2102 C   0  0  0  0  0  0  0  0  0  0  0  0
    3.0321   15.8381   25.3070 C   0  0  0  0  0  0  0  0  0  0  0  0
    1.8582   15.9729   26.0537 C   0  0  0  0  0  0  0  0  0  0  0  0
    1.3359   14.8870   26.7628 C   0  0  0  0  0  0  0  0  0  0  0  0
    0.1545   15.0020   27.5095 C   0  0  0  0  0  0  0  0  0  0  0  0
   -0.3307   13.9165   28.2372 C   0  0  0  0  0  0  0  0  0  0  0  0
    0.3651   12.7113   28.2390 C   0  0  0  0  0  0  0  0  0  0  0  0
    1.5352   12.5806   27.4931 C   0  0  0  0  0  0  0  0  0  0  0  0
    2.0234   13.6562   26.7363 C   0  0  0  0  0  0  0  0  0  0  0  0
    3.1811   13.5332   25.9510 C   0  0  0  0  0  0  0  0  0  0  0  0
  1  2  1  0
  2  3  2  0
  3  4  1  0
  4  5  1  0
  4  6  1  0
  6  7  1  0
  6  8  2  0
  8  9  1  0
  9 10  1  0
 10 11  2  0
 10 12  1  0
 12 13  1  0
 13 14  1  1
 14 15  1  0
 15 16  1  0
 16 17  2  0
 16 18  1  0
 18 19  1  1
 18 20  1  0
 20 21  1  6
 21 22  1  0
 22 23  1  0
 23 24  1  0
 13 25  1  0
 25 26  2  0
 26 27  1  0
 27 28  2  0
 28 29  1  0
 29 30  2  0
 30 31  1  0
 31 32  2  0
 32 33  1  0
 33 34  2  0
  8  2  1  0
 24 20  1  0
 34 25  1  0
 33 28  1  0
M  END
>  <Crystalforms alias>  (55) 
nan

>  <original ID>  (55) 
MSVHVDFYJOFNAC-PFATUAPWSA-N

>  <alias>  (55) 
None

>  <distance_score>  (55) 
0.597319

>  <CanonSites upload name>  (55) 
nan

>  <CanonSites alias>  (55) 
nan

>  <ConformerSites alias>  (55) 
nan

>  <observation_longname>  (55) 
nan

>  <CrystalformSites alias>  (55) 
nan

>  <tags>  (55) 
[]

>  <ref_mols>  (55) 
A1346a

>  <ref_pdb>  (55) 
A1346a

>  <Quatassemblies upload name>  (55) 
nan

>  <inchikey>  (55) 
MSVHVDFYJOFNAC-PFATUAPWSA-N

>  <Experiment code>  (55) 
nan

>  <Quatassemblies alias>  (55) 
nan

>  <Crystalforms upload name>  (55) 
nan

>  <Centroid res>  (55) 
nan

>  <ConformerSites upload name>  (55) 
nan

>  <energy_score>  (55) 
-29.457718

>  <original SMILES>  (55) 
Cc1nn(C)c(C)c1CC(=O)N[C@H](CNC(=O)[C@@H](N)[C@@H]1CCOC1)c1ccc2ccccc2c1

>  <exports>  (55) 
nan

>  <CrystalformSites upload name>  (55) 
nan

>  <name>  (55) 
MSVHVDFYJOFNAC-PFATUAPWSA-N

>  <HIPPO ID>  (55) 
32241

$$$$
MSVHVDFYJOFNAC-VTZPFEBOSA-N
     RDKit          3D

 34 37  0  0  0  0  0  0  0  0999 V2000
    5.6638   10.0460   26.9280 C   0  0  0  0  0  0  0  0  0  0  0  0
    6.8441   10.4526   26.1302 C   0  0  0  0  0  0  0  0  0  0  0  0
    7.4246    9.5812   25.3059 N   0  0  0  0  0  0  0  0  0  0  0  0
    8.4532   10.2560   24.7616 N   0  0  0  0  0  0  0  0  0  0  0  0
    9.2469    9.6114   23.7401 C   0  0  0  0  0  0  0  0  0  0  0  0
    8.6072   11.5093   25.2994 C   0  0  0  0  0  0  0  0  0  0  0  0
    9.7357   12.4319   25.0170 C   0  0  0  0  0  0  0  0  0  0  0  0
    7.5214   11.6952   26.1374 C   0  0  0  0  0  0  0  0  0  0  0  0
    7.1860   12.8977   26.9408 C   0  0  0  0  0  0  0  0  0  0  0  0
    6.8116   14.1307   26.1467 C   0  0  0  0  0  0  0  0  0  0  0  0
    7.2233   15.2348   26.5043 O   0  0  0  0  0  0  0  0  0  0  0  0
    5.9254   13.9504   25.1087 N   0  0  0  0  0  0  0  0  0  0  0  0
    5.0478   15.0388   24.6819 C   0  0  1  0  0  0  0  0  0  0  0  0
    4.8267   15.0804   23.1512 C   0  0  0  0  0  0  0  0  0  0  0  0
    6.0657   15.3344   22.4457 N   0  0  0  0  0  0  0  0  0  0  0  0
    6.8298   14.2839   22.0265 C   0  0  0  0  0  0  0  0  0  0  0  0
    6.3558   13.1790   21.7741 O   0  0  0  0  0  0  0  0  0  0  0  0
    8.3319   14.5024   22.0429 C   0  0  1  0  0  0  0  0  0  0  0  0
    8.9996   13.2339   22.3613 N   0  0  0  0  0  0  0  0  0  0  0  0
    8.9077   15.1772   20.7961 C   0  0  2  0  0  0  0  0  0  0  0  0
   10.4271   15.0659   20.7669 C   0  0  0  0  0  0  0  0  0  0  0  0
   10.7322   15.8725   22.0014 C   0  0  0  0  0  0  0  0  0  0  0  0
    9.8181   16.9933   21.8872 O   0  0  0  0  0  0  0  0  0  0  0  0
    8.7960   16.6800   20.9344 C   0  0  0  0  0  0  0  0  0  0  0  0
    3.7150   15.0058   25.4182 C   0  0  0  0  0  0  0  0  0  0  0  0
    2.9549   16.1806   25.4998 C   0  0  0  0  0  0  0  0  0  0  0  0
    1.7204   16.1945   26.1484 C   0  0  0  0  0  0  0  0  0  0  0  0
    1.2357   15.0414   26.7767 C   0  0  0  0  0  0  0  0  0  0  0  0
    0.0141   15.0461   27.4639 C   0  0  0  0  0  0  0  0  0  0  0  0
   -0.4289   13.9031   28.1277 C   0  0  0  0  0  0  0  0  0  0  0  0
    0.3428   12.7450   28.1153 C   0  0  0  0  0  0  0  0  0  0  0  0
    1.5486   12.7183   27.4181 C   0  0  0  0  0  0  0  0  0  0  0  0
    2.0035   13.8570   26.7368 C   0  0  0  0  0  0  0  0  0  0  0  0
    3.2156   13.8462   26.0308 C   0  0  0  0  0  0  0  0  0  0  0  0
  1  2  1  0
  2  3  2  0
  3  4  1  0
  4  5  1  0
  4  6  1  0
  6  7  1  0
  6  8  2  0
  8  9  1  0
  9 10  1  0
 10 11  2  0
 10 12  1  0
 12 13  1  0
 13 14  1  6
 14 15  1  0
 15 16  1  0
 16 17  2  0
 16 18  1  0
 18 19  1  6
 18 20  1  0
 20 21  1  1
 21 22  1  0
 22 23  1  0
 23 24  1  0
 13 25  1  0
 25 26  2  0
 26 27  1  0
 27 28  2  0
 28 29  1  0
 29 30  2  0
 30 31  1  0
 31 32  2  0
 32 33  1  0
 33 34  2  0
  8  2  1  0
 24 20  1  0
 34 25  1  0
 33 28  1  0
M  END
>  <Crystalforms alias>  (56) 
nan

>  <original ID>  (56) 
MSVHVDFYJOFNAC-VTZPFEBOSA-N

>  <alias>  (56) 
None

>  <distance_score>  (56) 
0.528382

>  <CanonSites upload name>  (56) 
nan

>  <CanonSites alias>  (56) 
nan

>  <ConformerSites alias>  (56) 
nan

>  <observation_longname>  (56) 
nan

>  <CrystalformSites alias>  (56) 
nan

>  <tags>  (56) 
[]

>  <ref_mols>  (56) 
A1346a

>  <ref_pdb>  (56) 
A1346a

>  <Quatassemblies upload name>  (56) 
nan

>  <inchikey>  (56) 
MSVHVDFYJOFNAC-VTZPFEBOSA-N

>  <Experiment code>  (56) 
nan

>  <Quatassemblies alias>  (56) 
nan

>  <Crystalforms upload name>  (56) 
nan

>  <Centroid res>  (56) 
nan

>  <ConformerSites upload name>  (56) 
nan

>  <energy_score>  (56) 
-31.184274

>  <original SMILES>  (56) 
Cc1nn(C)c(C)c1CC(=O)N[C@@H](CNC(=O)[C@@H](N)[C@@H]1CCOC1)c1ccc2ccccc2c1

>  <exports>  (56) 
nan

>  <CrystalformSites upload name>  (56) 
nan

>  <name>  (56) 
MSVHVDFYJOFNAC-VTZPFEBOSA-N

>  <HIPPO ID>  (56) 
32242

$$$$
MSVHVDFYJOFNAC-QQKQFIJSSA-N
     RDKit          3D

 34 37  0  0  0  0  0  0  0  0999 V2000
    6.0364   10.2411   27.0838 C   0  0  0  0  0  0  0  0  0  0  0  0
    7.1194   10.5396   26.1144 C   0  0  0  0  0  0  0  0  0  0  0  0
    7.5579    9.5802   25.2977 N   0  0  0  0  0  0  0  0  0  0  0  0
    8.4827   10.1842   24.5274 N   0  0  0  0  0  0  0  0  0  0  0  0
    9.1708    9.4110   23.5191 C   0  0  0  0  0  0  0  0  0  0  0  0
    8.6610   11.5077   24.8403 C   0  0  0  0  0  0  0  0  0  0  0  0
    9.5903   12.4051   24.1030 C   0  0  0  0  0  0  0  0  0  0  0  0
    7.8220   11.7576   25.9155 C   0  0  0  0  0  0  0  0  0  0  0  0
    7.6852   13.0208   26.6971 C   0  0  0  0  0  0  0  0  0  0  0  0
    6.5751   13.9737   26.3002 C   0  0  0  0  0  0  0  0  0  0  0  0
    6.5050   15.0685   26.8584 O   0  0  0  0  0  0  0  0  0  0  0  0
    5.6874   13.5275   25.3560 N   0  0  0  0  0  0  0  0  0  0  0  0
    4.6307   14.3403   24.7621 C   0  0  2  0  0  0  0  0  0  0  0  0
    5.1088   15.6981   24.2887 C   0  0  0  0  0  0  0  0  0  0  0  0
    6.3215   15.8606   23.5466 N   0  0  0  0  0  0  0  0  0  0  0  0
    6.9013   14.9002   22.7822 C   0  0  0  0  0  0  0  0  0  0  0  0
    6.7838   13.6808   22.9294 O   0  0  0  0  0  0  0  0  0  0  0  0
    7.4646   15.4710   21.4983 C   0  0  2  0  0  0  0  0  0  0  0  0
    8.0725   14.3553   20.8037 N   0  0  0  0  0  0  0  0  0  0  0  0
    8.2335   16.7756   21.4089 C   0  0  1  0  0  0  0  0  0  0  0  0
    9.6547   16.4747   21.0451 C   0  0  0  0  0  0  0  0  0  0  0  0
    9.6426   16.5472   19.5108 C   0  0  0  0  0  0  0  0  0  0  0  0
    8.6350   17.4848   19.1446 O   0  0  0  0  0  0  0  0  0  0  0  0
    7.8762   17.7828   20.3082 C   0  0  0  0  0  0  0  0  0  0  0  0
    3.3813   14.4651   25.6288 C   0  0  0  0  0  0  0  0  0  0  0  0
    2.5593   15.6095   25.6081 C   0  0  0  0  0  0  0  0  0  0  0  0
    1.3632   15.6606   26.3167 C   0  0  0  0  0  0  0  0  0  0  0  0
    0.9607   14.5682   27.0815 C   0  0  0  0  0  0  0  0  0  0  0  0
   -0.2414   14.5985   27.7953 C   0  0  0  0  0  0  0  0  0  0  0  0
   -0.6220   13.5068   28.5719 C   0  0  0  0  0  0  0  0  0  0  0  0
    0.1935   12.3798   28.6451 C   0  0  0  0  0  0  0  0  0  0  0  0
    1.3901   12.3341   27.9332 C   0  0  0  0  0  0  0  0  0  0  0  0
    1.7821   13.4196   27.1421 C   0  0  0  0  0  0  0  0  0  0  0  0
    2.9736   13.3802   26.4102 C   0  0  0  0  0  0  0  0  0  0  0  0
  1  2  1  0
  2  3  2  0
  3  4  1  0
  4  5  1  0
  4  6  1  0
  6  7  1  0
  6  8  2  0
  8  9  1  0
  9 10  1  0
 10 11  2  0
 10 12  1  0
 12 13  1  0
 13 14  1  1
 14 15  1  0
 15 16  1  0
 16 17  2  0
 16 18  1  0
 18 19  1  1
 18 20  1  0
 20 21  1  6
 21 22  1  0
 22 23  1  0
 23 24  1  0
 13 25  1  0
 25 26  2  0
 26 27  1  0
 27 28  2  0
 28 29  1  0
 29 30  2  0
 30 31  1  0
 31 32  2  0
 32 33  1  0
 33 34  2  0
  8  2  1  0
 24 20  1  0
 34 25  1  0
 33 28  1  0
M  END
>  <Crystalforms alias>  (57) 
nan

>  <original ID>  (57) 
MSVHVDFYJOFNAC-QQKQFIJSSA-N

>  <alias>  (57) 
None

>  <distance_score>  (57) 
0.739735

>  <CanonSites upload name>  (57) 
nan

>  <CanonSites alias>  (57) 
nan

>  <ConformerSites alias>  (57) 
nan

>  <observation_longname>  (57) 
nan

>  <CrystalformSites alias>  (57) 
nan

>  <tags>  (57) 
[]

>  <ref_mols>  (57) 
A1346a

>  <ref_pdb>  (57) 
A1346a

>  <Quatassemblies upload name>  (57) 
nan

>  <inchikey>  (57) 
MSVHVDFYJOFNAC-QQKQFIJSSA-N

>  <Experiment code>  (57) 
nan

>  <Quatassemblies alias>  (57) 
nan

>  <Crystalforms upload name>  (57) 
nan

>  <Centroid res>  (57) 
nan

>  <ConformerSites upload name>  (57) 
nan

>  <energy_score>  (57) 
-14.020064

>  <original SMILES>  (57) 
Cc1nn(C)c(C)c1CC(=O)N[C@H](CNC(=O)[C@H](N)[C@H]1CCOC1)c1ccc2ccccc2c1

>  <exports>  (57) 
nan

>  <CrystalformSites upload name>  (57) 
nan

>  <name>  (57) 
MSVHVDFYJOFNAC-QQKQFIJSSA-N

>  <HIPPO ID>  (57) 
32243

$$$$
MSVHVDFYJOFNAC-RSEQLOHWSA-N
     RDKit          3D

 34 37  0  0  0  0  0  0  0  0999 V2000
    6.0204   10.3002   27.0538 C   0  0  0  0  0  0  0  0  0  0  0  0
    7.0988   10.5687   26.0711 C   0  0  0  0  0  0  0  0  0  0  0  0
    7.5000    9.5978   25.2489 N   0  0  0  0  0  0  0  0  0  0  0  0
    8.4512   10.1681   24.4837 N   0  0  0  0  0  0  0  0  0  0  0  0
    9.1347    9.3695   23.4921 C   0  0  0  0  0  0  0  0  0  0  0  0
    8.6752   11.4822   24.8023 C   0  0  0  0  0  0  0  0  0  0  0  0
    9.6493   12.3463   24.0887 C   0  0  0  0  0  0  0  0  0  0  0  0
    7.8511   11.7565   25.8808 C   0  0  0  0  0  0  0  0  0  0  0  0
    7.8235   12.9946   26.7023 C   0  0  0  0  0  0  0  0  0  0  0  0
    7.0049   14.1647   26.2294 C   0  0  0  0  0  0  0  0  0  0  0  0
    7.1629   15.2526   26.7878 O   0  0  0  0  0  0  0  0  0  0  0  0
    6.1000   13.9566   25.2289 N   0  0  0  0  0  0  0  0  0  0  0  0
    5.1999   15.0141   24.7898 C   0  0  1  0  0  0  0  0  0  0  0  0
    5.0841   15.0540   23.2573 C   0  0  0  0  0  0  0  0  0  0  0  0
    6.2630   15.6199   22.6376 N   0  0  0  0  0  0  0  0  0  0  0  0
    7.3194   14.8854   22.1566 C   0  0  0  0  0  0  0  0  0  0  0  0
    7.3749   13.6596   22.2360 O   0  0  0  0  0  0  0  0  0  0  0  0
    8.2819   15.7542   21.3281 C   0  0  1  0  0  0  0  0  0  0  0  0
    8.6098   17.0649   21.8747 N   0  0  0  0  0  0  0  0  0  0  0  0
    9.3421   15.0153   20.5576 C   0  0  1  0  0  0  0  0  0  0  0  0
    9.6915   15.7412   19.2800 C   0  0  0  0  0  0  0  0  0  0  0  0
   10.9460   15.0275   18.8717 C   0  0  0  0  0  0  0  0  0  0  0  0
   11.6132   14.6406   20.0804 O   0  0  0  0  0  0  0  0  0  0  0  0
   10.6934   14.7728   21.1792 C   0  0  0  0  0  0  0  0  0  0  0  0
    3.8339   14.9344   25.4553 C   0  0  0  0  0  0  0  0  0  0  0  0
    3.0249   16.0810   25.4720 C   0  0  0  0  0  0  0  0  0  0  0  0
    1.7702   16.0706   26.0800 C   0  0  0  0  0  0  0  0  0  0  0  0
    1.3105   14.9213   26.7316 C   0  0  0  0  0  0  0  0  0  0  0  0
    0.0711   14.9063   27.3861 C   0  0  0  0  0  0  0  0  0  0  0  0
   -0.3501   13.7708   28.0757 C   0  0  0  0  0  0  0  0  0  0  0  0
    0.4596   12.6392   28.1191 C   0  0  0  0  0  0  0  0  0  0  0  0
    1.6861   12.6331   27.4573 C   0  0  0  0  0  0  0  0  0  0  0  0
    2.1225   13.7645   26.7519 C   0  0  0  0  0  0  0  0  0  0  0  0
    3.3590   13.7764   26.0860 C   0  0  0  0  0  0  0  0  0  0  0  0
  1  2  1  0
  2  3  2  0
  3  4  1  0
  4  5  1  0
  4  6  1  0
  6  7  1  0
  6  8  2  0
  8  9  1  0
  9 10  1  0
 10 11  2  0
 10 12  1  0
 12 13  1  0
 13 14  1  6
 14 15  1  0
 15 16  1  0
 16 17  2  0
 16 18  1  0
 18 19  1  1
 18 20  1  0
 20 21  1  6
 21 22  1  0
 22 23  1  0
 23 24  1  0
 13 25  1  0
 25 26  2  0
 26 27  1  0
 27 28  2  0
 28 29  1  0
 29 30  2  0
 30 31  1  0
 31 32  2  0
 32 33  1  0
 33 34  2  0
  8  2  1  0
 24 20  1  0
 34 25  1  0
 33 28  1  0
M  END
>  <Crystalforms alias>  (58) 
nan

>  <original ID>  (58) 
MSVHVDFYJOFNAC-RSEQLOHWSA-N

>  <alias>  (58) 
None

>  <distance_score>  (58) 
0.338858

>  <CanonSites upload name>  (58) 
nan

>  <CanonSites alias>  (58) 
nan

>  <ConformerSites alias>  (58) 
nan

>  <observation_longname>  (58) 
nan

>  <CrystalformSites alias>  (58) 
nan

>  <tags>  (58) 
[]

>  <ref_mols>  (58) 
A1346a

>  <ref_pdb>  (58) 
A1346a

>  <Quatassemblies upload name>  (58) 
nan

>  <inchikey>  (58) 
MSVHVDFYJOFNAC-RSEQLOHWSA-N

>  <Experiment code>  (58) 
nan

>  <Quatassemblies alias>  (58) 
nan

>  <Crystalforms upload name>  (58) 
nan

>  <Centroid res>  (58) 
nan

>  <ConformerSites upload name>  (58) 
nan

>  <energy_score>  (58) 
-30.713042

>  <original SMILES>  (58) 
Cc1nn(C)c(C)c1CC(=O)N[C@@H](CNC(=O)[C@@H](N)[C@H]1CCOC1)c1ccc2ccccc2c1

>  <exports>  (58) 
nan

>  <CrystalformSites upload name>  (58) 
nan

>  <name>  (58) 
MSVHVDFYJOFNAC-RSEQLOHWSA-N

>  <HIPPO ID>  (58) 
32244

$$$$
MSVHVDFYJOFNAC-QQKQFIJSSA-N
     RDKit          3D

 34 37  0  0  0  0  0  0  0  0999 V2000
    5.9420   10.2536   27.0820 C   0  0  0  0  0  0  0  0  0  0  0  0
    7.0544   10.5197   26.1372 C   0  0  0  0  0  0  0  0  0  0  0  0
    7.4880    9.5453   25.3345 N   0  0  0  0  0  0  0  0  0  0  0  0
    8.4548   10.1175   24.5932 N   0  0  0  0  0  0  0  0  0  0  0  0
    9.1285    9.3466   23.5723 C   0  0  0  0  0  0  0  0  0  0  0  0
    8.6764   11.4269   24.9293 C   0  0  0  0  0  0  0  0  0  0  0  0
    9.6919   12.2664   24.2558 C   0  0  0  0  0  0  0  0  0  0  0  0
    7.7817   11.7241   25.9426 C   0  0  0  0  0  0  0  0  0  0  0  0
    7.6123   13.0224   26.6614 C   0  0  0  0  0  0  0  0  0  0  0  0
    6.7497   14.0621   25.9649 C   0  0  0  0  0  0  0  0  0  0  0  0
    6.8746   15.2513   26.2540 O   0  0  0  0  0  0  0  0  0  0  0  0
    5.8199   13.5750   25.0899 N   0  0  0  0  0  0  0  0  0  0  0  0
    4.7906   14.3514   24.4158 C   0  0  2  0  0  0  0  0  0  0  0  0
    5.2894   15.4436   23.4755 C   0  0  0  0  0  0  0  0  0  0  0  0
    6.6690   15.3773   23.0545 N   0  0  0  0  0  0  0  0  0  0  0  0
    7.2526   14.4510   22.2303 C   0  0  0  0  0  0  0  0  0  0  0  0
    6.7602   13.3505   21.9944 O   0  0  0  0  0  0  0  0  0  0  0  0
    8.5871   14.9531   21.5827 C   0  0  2  0  0  0  0  0  0  0  0  0
    9.6925   14.9727   22.5306 N   0  0  0  0  0  0  0  0  0  0  0  0
    8.3266   16.2804   20.8981 C   0  0  1  0  0  0  0  0  0  0  0  0
    8.3849   17.6305   21.5510 C   0  0  0  0  0  0  0  0  0  0  0  0
    8.1182   18.4848   20.3288 C   0  0  0  0  0  0  0  0  0  0  0  0
    8.9217   17.9058   19.2984 O   0  0  0  0  0  0  0  0  0  0  0  0
    9.1222   16.5221   19.6267 C   0  0  0  0  0  0  0  0  0  0  0  0
    3.6184   14.6656   25.3346 C   0  0  0  0  0  0  0  0  0  0  0  0
    2.9869   15.9108   25.4082 C   0  0  0  0  0  0  0  0  0  0  0  0
    1.8126   16.0755   26.1492 C   0  0  0  0  0  0  0  0  0  0  0  0
    1.2555   15.0035   26.8589 C   0  0  0  0  0  0  0  0  0  0  0  0
    0.0629   15.1400   27.5832 C   0  0  0  0  0  0  0  0  0  0  0  0
   -0.4595   14.0617   28.2977 C   0  0  0  0  0  0  0  0  0  0  0  0
    0.2091   12.8409   28.3097 C   0  0  0  0  0  0  0  0  0  0  0  0
    1.3907   12.6876   27.5889 C   0  0  0  0  0  0  0  0  0  0  0  0
    1.9145   13.7577   26.8503 C   0  0  0  0  0  0  0  0  0  0  0  0
    3.0778   13.6082   26.0887 C   0  0  0  0  0  0  0  0  0  0  0  0
  1  2  1  0
  2  3  2  0
  3  4  1  0
  4  5  1  0
  4  6  1  0
  6  7  1  0
  6  8  2  0
  8  9  1  0
  9 10  1  0
 10 11  2  0
 10 12  1  0
 12 13  1  0
 13 14  1  1
 14 15  1  0
 15 16  1  0
 16 17  2  0
 16 18  1  0
 18 19  1  1
 18 20  1  0
 20 21  1  1
 21 22  1  0
 22 23  1  0
 23 24  1  0
 13 25  1  0
 25 26  2  0
 26 27  1  0
 27 28  2  0
 28 29  1  0
 29 30  2  0
 30 31  1  0
 31 32  2  0
 32 33  1  0
 33 34  2  0
  8  2  1  0
 24 20  1  0
 34 25  1  0
 33 28  1  0
M  END
>  <Crystalforms alias>  (59) 
nan

>  <original ID>  (59) 
MSVHVDFYJOFNAC-QQKQFIJSSA-N

>  <alias>  (59) 
None

>  <distance_score>  (59) 
0.420066

>  <CanonSites upload name>  (59) 
nan

>  <CanonSites alias>  (59) 
nan

>  <ConformerSites alias>  (59) 
nan

>  <observation_longname>  (59) 
nan

>  <CrystalformSites alias>  (59) 
nan

>  <tags>  (59) 
[]

>  <ref_mols>  (59) 
A1346a

>  <ref_pdb>  (59) 
A1346a

>  <Quatassemblies upload name>  (59) 
nan

>  <inchikey>  (59) 
MSVHVDFYJOFNAC-QQKQFIJSSA-N

>  <Experiment code>  (59) 
nan

>  <Quatassemblies alias>  (59) 
nan

>  <Crystalforms upload name>  (59) 
nan

>  <Centroid res>  (59) 
nan

>  <ConformerSites upload name>  (59) 
nan

>  <energy_score>  (59) 
-36.365457

>  <original SMILES>  (59) 
Cc1nn(C)c(C)c1CC(=O)N[C@H](CNC(=O)[C@H](N)[C@H]1CCOC1)c1ccc2ccccc2c1

>  <exports>  (59) 
nan

>  <CrystalformSites upload name>  (59) 
nan

>  <name>  (59) 
MSVHVDFYJOFNAC-QQKQFIJSSA-N

>  <HIPPO ID>  (59) 
32245

$$$$
MSVHVDFYJOFNAC-UMXIMWEHSA-N
     RDKit          3D

 34 37  0  0  0  0  0  0  0  0999 V2000
    5.6404   10.0017   27.1164 C   0  0  0  0  0  0  0  0  0  0  0  0
    6.7591   10.2743   26.1842 C   0  0  0  0  0  0  0  0  0  0  0  0
    7.2063    9.3074   25.3798 N   0  0  0  0  0  0  0  0  0  0  0  0
    8.2182    9.8661   24.6939 N   0  0  0  0  0  0  0  0  0  0  0  0
    8.9334    9.1129   23.6833 C   0  0  0  0  0  0  0  0  0  0  0  0
    8.4388   11.1595   25.0740 C   0  0  0  0  0  0  0  0  0  0  0  0
    9.5004   11.9571   24.4612 C   0  0  0  0  0  0  0  0  0  0  0  0
    7.4946   11.4747   26.0303 C   0  0  0  0  0  0  0  0  0  0  0  0
    7.3224   12.7430   26.7912 C   0  0  0  0  0  0  0  0  0  0  0  0
    6.9756   13.9917   26.0117 C   0  0  0  0  0  0  0  0  0  0  0  0
    7.3576   15.0892   26.4233 O   0  0  0  0  0  0  0  0  0  0  0  0
    6.1535   13.8405   24.9236 N   0  0  0  0  0  0  0  0  0  0  0  0
    5.3050   14.9418   24.4745 C   0  0  1  0  0  0  0  0  0  0  0  0
    5.1892   14.9904   22.9279 C   0  0  0  0  0  0  0  0  0  0  0  0
    6.3188   15.6952   22.3289 N   0  0  0  0  0  0  0  0  0  0  0  0
    7.4182   15.0832   21.7671 C   0  0  0  0  0  0  0  0  0  0  0  0
    7.4252   13.8787   21.5288 O   0  0  0  0  0  0  0  0  0  0  0  0
    8.6080   16.0641   21.5308 C   0  0  2  0  0  0  0  0  0  0  0  0
    8.5998   16.7760   20.2590 N   0  0  0  0  0  0  0  0  0  0  0  0
   10.0022   15.5426   21.8288 C   0  0  1  0  0  0  0  0  0  0  0  0
   10.1441   14.5390   22.9327 C   0  0  0  0  0  0  0  0  0  0  0  0
   11.5913   14.1505   22.8065 C   0  0  0  0  0  0  0  0  0  0  0  0
   11.8839   14.2302   21.4118 O   0  0  0  0  0  0  0  0  0  0  0  0
   10.7356   14.7891   20.7438 C   0  0  0  0  0  0  0  0  0  0  0  0
    3.9457   14.9189   25.1784 C   0  0  0  0  0  0  0  0  0  0  0  0
    3.1878   16.0968   25.2278 C   0  0  0  0  0  0  0  0  0  0  0  0
    1.9510   16.1431   25.8758 C   0  0  0  0  0  0  0  0  0  0  0  0
    1.4555   15.0177   26.5423 C   0  0  0  0  0  0  0  0  0  0  0  0
    0.2299   15.0548   27.2247 C   0  0  0  0  0  0  0  0  0  0  0  0
   -0.2245   13.9395   27.9263 C   0  0  0  0  0  0  0  0  0  0  0  0
    0.5432   12.7797   27.9619 C   0  0  0  0  0  0  0  0  0  0  0  0
    1.7555   12.7246   27.2756 C   0  0  0  0  0  0  0  0  0  0  0  0
    2.2197   13.8311   26.5466 C   0  0  0  0  0  0  0  0  0  0  0  0
    3.4361   13.7887   25.8387 C   0  0  0  0  0  0  0  0  0  0  0  0
  1  2  1  0
  2  3  2  0
  3  4  1  0
  4  5  1  0
  4  6  1  0
  6  7  1  0
  6  8  2  0
  8  9  1  0
  9 10  1  0
 10 11  2  0
 10 12  1  0
 12 13  1  0
 13 14  1  6
 14 15  1  0
 15 16  1  0
 16 17  2  0
 16 18  1  0
 18 19  1  6
 18 20  1  0
 20 21  1  1
 21 22  1  0
 22 23  1  0
 23 24  1  0
 13 25  1  0
 25 26  2  0
 26 27  1  0
 27 28  2  0
 28 29  1  0
 29 30  2  0
 30 31  1  0
 31 32  2  0
 32 33  1  0
 33 34  2  0
  8  2  1  0
 24 20  1  0
 34 25  1  0
 33 28  1  0
M  END
>  <Crystalforms alias>  (60) 
nan

>  <original ID>  (60) 
MSVHVDFYJOFNAC-UMXIMWEHSA-N

>  <alias>  (60) 
None

>  <distance_score>  (60) 
0.394388

>  <CanonSites upload name>  (60) 
nan

>  <CanonSites alias>  (60) 
nan

>  <ConformerSites alias>  (60) 
nan

>  <observation_longname>  (60) 
nan

>  <CrystalformSites alias>  (60) 
nan

>  <tags>  (60) 
[]

>  <ref_mols>  (60) 
A1346a

>  <ref_pdb>  (60) 
A1346a

>  <Quatassemblies upload name>  (60) 
nan

>  <inchikey>  (60) 
MSVHVDFYJOFNAC-UMXIMWEHSA-N

>  <Experiment code>  (60) 
nan

>  <Quatassemblies alias>  (60) 
nan

>  <Crystalforms upload name>  (60) 
nan

>  <Centroid res>  (60) 
nan

>  <ConformerSites upload name>  (60) 
nan

>  <energy_score>  (60) 
-32.276296

>  <original SMILES>  (60) 
Cc1nn(C)c(C)c1CC(=O)N[C@@H](CNC(=O)[C@H](N)[C@H]1CCOC1)c1ccc2ccccc2c1

>  <exports>  (60) 
nan

>  <CrystalformSites upload name>  (60) 
nan

>  <name>  (60) 
MSVHVDFYJOFNAC-UMXIMWEHSA-N

>  <HIPPO ID>  (60) 
32246

$$$$
HOWRLYKLFLMWBY-LSDHHAIUSA-N
     RDKit          3D

 22 24  0  0  0  0  0  0  0  0999 V2000
    9.1732   15.1313   21.2596 O   0  0  0  0  0  0  0  0  0  0  0  0
   10.1860   14.9217   21.9035 C   0  0  0  0  0  0  0  0  0  0  0  0
   11.2583   15.7813   21.9837 N   0  0  0  0  0  0  0  0  0  0  0  0
   12.1376   15.4104   23.0421 C   0  0  0  0  0  0  0  0  0  0  0  0
   11.9056   13.9300   23.2320 C   0  0  0  0  0  0  0  0  0  0  0  0
   10.4926   13.7075   22.7121 C   0  0  1  0  0  0  0  0  0  0  0  0
    9.5154   13.3872   23.8189 C   0  0  0  0  0  0  0  0  0  0  0  0
    9.0421   14.2579   24.5465 O   0  0  0  0  0  0  0  0  0  0  0  0
    9.2192   12.0370   24.0435 N   0  0  0  0  0  0  0  0  0  0  0  0
    9.7504   11.0194   23.1642 C   0  0  0  0  0  0  0  0  0  0  0  0
    9.6989    9.6169   23.6599 C   0  0  0  0  0  0  0  0  0  0  0  0
    8.3980    9.3083   24.3389 C   0  0  0  0  0  0  0  0  0  0  0  0
    7.8060   10.3741   25.2670 C   0  0  2  0  0  0  0  0  0  0  0  0
    6.4638    9.9823   25.7091 N   0  0  0  0  0  0  0  0  0  0  0  0
    5.7081   10.9281   26.5248 C   0  0  0  0  0  0  0  0  0  0  0  0
    6.1886   11.1205   27.9410 C   0  0  0  0  0  0  0  0  0  0  0  0
    6.0739   10.0868   28.8838 C   0  0  0  0  0  0  0  0  0  0  0  0
    6.4905   10.2805   30.2030 C   0  0  0  0  0  0  0  0  0  0  0  0
    7.0192   11.5094   30.5953 C   0  0  0  0  0  0  0  0  0  0  0  0
    7.1229   12.5487   29.6725 C   0  0  0  0  0  0  0  0  0  0  0  0
    6.7071   12.3574   28.3531 C   0  0  0  0  0  0  0  0  0  0  0  0
    7.9221   11.7660   24.6580 C   0  0  0  0  0  0  0  0  0  0  0  0
  1  2  2  0
  2  3  1  0
  3  4  1  0
  4  5  1  0
  5  6  1  0
  6  7  1  1
  7  8  2  0
  7  9  1  0
  9 10  1  0
 10 11  1  0
 11 12  1  0
 12 13  1  0
 13 14  1  6
 14 15  1  0
 15 16  1  0
 16 17  2  0
 17 18  1  0
 18 19  2  0
 19 20  1  0
 20 21  2  0
 13 22  1  0
  6  2  1  0
 22  9  1  0
 21 16  1  0
M  END
>  <Crystalforms alias>  (61) 
nan

>  <original ID>  (61) 
HOWRLYKLFLMWBY-LSDHHAIUSA-N

>  <alias>  (61) 
None

>  <distance_score>  (61) 
1.470333

>  <CanonSites upload name>  (61) 
nan

>  <CanonSites alias>  (61) 
nan

>  <ConformerSites alias>  (61) 
nan

>  <observation_longname>  (61) 
nan

>  <CrystalformSites alias>  (61) 
nan

>  <tags>  (61) 
['Syndirella scaffold']

>  <ref_mols>  (61) 
A0528a,A0365a

>  <ref_pdb>  (61) 
A0310a

>  <Quatassemblies upload name>  (61) 
nan

>  <inchikey>  (61) 
HOWRLYKLFLMWBY-LSDHHAIUSA-N

>  <Experiment code>  (61) 
nan

>  <Quatassemblies alias>  (61) 
nan

>  <Crystalforms upload name>  (61) 
nan

>  <Centroid res>  (61) 
nan

>  <ConformerSites upload name>  (61) 
nan

>  <energy_score>  (61) 
-28.147638

>  <original SMILES>  (61) 
O=C1NCC[C@H]1C(=O)N1CCC[C@H](NCc2ccccc2)C1

>  <exports>  (61) 
nan

>  <CrystalformSites upload name>  (61) 
nan

>  <name>  (61) 
HOWRLYKLFLMWBY-LSDHHAIUSA-N

>  <HIPPO ID>  (61) 
32879

$$$$
HOWRLYKLFLMWBY-CABCVRRESA-N
     RDKit          3D

 22 24  0  0  0  0  0  0  0  0999 V2000
    8.9802   15.1430   21.7986 O   0  0  0  0  0  0  0  0  0  0  0  0
   10.1358   14.9362   22.1179 C   0  0  0  0  0  0  0  0  0  0  0  0
   11.1716   15.1874   21.2573 N   0  0  0  0  0  0  0  0  0  0  0  0
   12.3628   14.5563   21.7002 C   0  0  0  0  0  0  0  0  0  0  0  0
   11.9305   13.6663   22.8544 C   0  0  0  0  0  0  0  0  0  0  0  0
   10.7183   14.3928   23.4034 C   0  0  2  0  0  0  0  0  0  0  0  0
    9.8901   13.5742   24.3895 C   0  0  0  0  0  0  0  0  0  0  0  0
    9.7785   13.9758   25.5473 O   0  0  0  0  0  0  0  0  0  0  0  0
    9.2925   12.3841   23.9956 N   0  0  0  0  0  0  0  0  0  0  0  0
    8.3334   12.5855   22.9947 C   0  0  0  0  0  0  0  0  0  0  0  0
    7.1420   13.3500   23.5471 C   0  0  0  0  0  0  0  0  0  0  0  0
    6.6970   12.9438   24.9554 C   0  0  0  0  0  0  0  0  0  0  0  0
    7.4212   11.7659   25.6233 C   0  0  1  0  0  0  0  0  0  0  0  0
    6.5502   10.6009   25.8779 N   0  0  0  0  0  0  0  0  0  0  0  0
    5.4872   10.8346   26.8635 C   0  0  0  0  0  0  0  0  0  0  0  0
    5.9756   11.0409   28.2795 C   0  0  0  0  0  0  0  0  0  0  0  0
    6.1103    9.9517   29.1502 C   0  0  0  0  0  0  0  0  0  0  0  0
    6.6114   10.1350   30.4410 C   0  0  0  0  0  0  0  0  0  0  0  0
    6.9890   11.4058   30.8717 C   0  0  0  0  0  0  0  0  0  0  0  0
    6.8423   12.4996   30.0228 C   0  0  0  0  0  0  0  0  0  0  0  0
    6.3240   12.3203   28.7405 C   0  0  0  0  0  0  0  0  0  0  0  0
    8.7251   11.3694   24.8958 C   0  0  0  0  0  0  0  0  0  0  0  0
  1  2  2  0
  2  3  1  0
  3  4  1  0
  4  5  1  0
  5  6  1  0
  6  7  1  6
  7  8  2  0
  7  9  1  0
  9 10  1  0
 10 11  1  0
 11 12  1  0
 12 13  1  0
 13 14  1  6
 14 15  1  0
 15 16  1  0
 16 17  2  0
 17 18  1  0
 18 19  2  0
 19 20  1  0
 20 21  2  0
 13 22  1  0
  6  2  1  0
 22  9  1  0
 21 16  1  0
M  END
>  <Crystalforms alias>  (62) 
nan

>  <original ID>  (62) 
HOWRLYKLFLMWBY-CABCVRRESA-N

>  <alias>  (62) 
None

>  <distance_score>  (62) 
1.913803

>  <CanonSites upload name>  (62) 
nan

>  <CanonSites alias>  (62) 
nan

>  <ConformerSites alias>  (62) 
nan

>  <observation_longname>  (62) 
nan

>  <CrystalformSites alias>  (62) 
nan

>  <tags>  (62) 
['Syndirella scaffold']

>  <ref_mols>  (62) 
A0528a,A0365a

>  <ref_pdb>  (62) 
A0310a

>  <Quatassemblies upload name>  (62) 
nan

>  <inchikey>  (62) 
HOWRLYKLFLMWBY-CABCVRRESA-N

>  <Experiment code>  (62) 
nan

>  <Quatassemblies alias>  (62) 
nan

>  <Crystalforms upload name>  (62) 
nan

>  <Centroid res>  (62) 
nan

>  <ConformerSites upload name>  (62) 
nan

>  <energy_score>  (62) 
-27.147451

>  <original SMILES>  (62) 
O=C1NCC[C@@H]1C(=O)N1CCC[C@@H](NCc2ccccc2)C1

>  <exports>  (62) 
nan

>  <CrystalformSites upload name>  (62) 
nan

>  <name>  (62) 
HOWRLYKLFLMWBY-CABCVRRESA-N

>  <HIPPO ID>  (62) 
32880

$$$$
VKBQMFODLXELEV-YJBOKZPZSA-N
     RDKit          3D

 23 25  0  0  0  0  0  0  0  0999 V2000
   10.7678   14.6300   24.6738 C   0  0  0  0  0  0  0  0  0  0  0  0
   10.6135   13.8826   23.3368 C   0  0  2  0  0  0  0  0  0  0  0  0
    9.9263   12.5435   23.5980 C   0  0  0  0  0  0  0  0  0  0  0  0
   10.5733   11.5020   23.5013 O   0  0  0  0  0  0  0  0  0  0  0  0
    8.6512   12.4549   24.1209 N   0  0  0  0  0  0  0  0  0  0  0  0
    7.6392   13.4559   23.9314 C   0  0  0  0  0  0  0  0  0  0  0  0
    7.0376   13.8650   25.2435 C   0  0  0  0  0  0  0  0  0  0  0  0
    6.8424   12.7102   26.1969 C   0  0  0  0  0  0  0  0  0  0  0  0
    6.8812   11.3338   25.5364 C   0  0  2  0  0  0  0  0  0  0  0  0
    6.6291   10.2397   26.4820 N   0  0  0  0  0  0  0  0  0  0  0  0
    5.4467   10.4293   27.3321 C   0  0  0  0  0  0  0  0  0  0  0  0
    5.8548   10.7521   28.7556 C   0  0  0  0  0  0  0  0  0  0  0  0
    6.1326    9.6985   29.6302 C   0  0  0  0  0  0  0  0  0  0  0  0
    6.6622    9.9346   30.8999 C   0  0  0  0  0  0  0  0  0  0  0  0
    6.9108   11.2374   31.3202 C   0  0  0  0  0  0  0  0  0  0  0  0
    6.5852   12.3022   30.4892 C   0  0  0  0  0  0  0  0  0  0  0  0
    6.0385   12.0592   29.2282 C   0  0  0  0  0  0  0  0  0  0  0  0
    8.1881   11.1771   24.7119 C   0  0  0  0  0  0  0  0  0  0  0  0
   12.0522   13.6983   22.7870 C   0  0  0  0  0  0  0  0  0  0  0  0
   12.3857   15.0349   22.1496 C   0  0  0  0  0  0  0  0  0  0  0  0
   11.1171   15.5138   21.7179 N   0  0  0  0  0  0  0  0  0  0  0  0
   10.1016   14.7044   22.1694 C   0  0  0  0  0  0  0  0  0  0  0  0
    9.0083   14.7090   21.6308 O   0  0  0  0  0  0  0  0  0  0  0  0
  2  1  1  1
  2  3  1  0
  3  4  2  0
  3  5  1  0
  5  6  1  0
  6  7  1  0
  7  8  1  0
  8  9  1  0
  9 10  1  1
 10 11  1  0
 11 12  1  0
 12 13  2  0
 13 14  1  0
 14 15  2  0
 15 16  1  0
 16 17  2  0
  9 18  1  0
  2 19  1  0
 19 20  1  0
 20 21  1  0
 21 22  1  0
 22 23  2  0
 22  2  1  0
 18  5  1  0
 17 12  1  0
M  END
>  <Crystalforms alias>  (63) 
nan

>  <original ID>  (63) 
VKBQMFODLXELEV-YJBOKZPZSA-N

>  <alias>  (63) 
None

>  <distance_score>  (63) 
2.02085

>  <CanonSites upload name>  (63) 
nan

>  <CanonSites alias>  (63) 
nan

>  <ConformerSites alias>  (63) 
nan

>  <observation_longname>  (63) 
nan

>  <CrystalformSites alias>  (63) 
nan

>  <tags>  (63) 
[]

>  <ref_mols>  (63) 
A0528a,A0365a

>  <ref_pdb>  (63) 
A0310a

>  <Quatassemblies upload name>  (63) 
nan

>  <inchikey>  (63) 
VKBQMFODLXELEV-YJBOKZPZSA-N

>  <Experiment code>  (63) 
nan

>  <Quatassemblies alias>  (63) 
nan

>  <Crystalforms upload name>  (63) 
nan

>  <Centroid res>  (63) 
nan

>  <ConformerSites upload name>  (63) 
nan

>  <energy_score>  (63) 
-35.862499

>  <original SMILES>  (63) 
C[C@]1(C(=O)N2CCC[C@H](NCc3ccccc3)C2)CCNC1=O

>  <exports>  (63) 
nan

>  <CrystalformSites upload name>  (63) 
nan

>  <name>  (63) 
VKBQMFODLXELEV-YJBOKZPZSA-N

>  <HIPPO ID>  (63) 
33104

$$$$
VKBQMFODLXELEV-CRAIPNDOSA-N
     RDKit          3D

 23 25  0  0  0  0  0  0  0  0999 V2000
   11.4045   12.8689   22.9315 C   0  0  0  0  0  0  0  0  0  0  0  0
   10.7340   14.1209   23.4266 C   0  0  1  0  0  0  0  0  0  0  0  0
    9.9488   14.0452   24.7649 C   0  0  0  0  0  0  0  0  0  0  0  0
    9.9665   15.0085   25.5421 O   0  0  0  0  0  0  0  0  0  0  0  0
    9.1742   12.9809   25.1776 N   0  0  0  0  0  0  0  0  0  0  0  0
    9.1623   11.6701   24.5990 C   0  0  0  0  0  0  0  0  0  0  0  0
    8.0678   11.6781   23.6067 C   0  0  0  0  0  0  0  0  0  0  0  0
    7.0016   12.7215   23.9644 C   0  0  0  0  0  0  0  0  0  0  0  0
    6.6688   12.6505   25.4450 C   0  0  1  0  0  0  0  0  0  0  0  0
    6.3308   11.2768   25.8889 N   0  0  0  0  0  0  0  0  0  0  0  0
    5.3250   11.2088   26.9432 C   0  0  0  0  0  0  0  0  0  0  0  0
    5.9006   11.3175   28.3345 C   0  0  0  0  0  0  0  0  0  0  0  0
    6.1417   10.1629   29.0944 C   0  0  0  0  0  0  0  0  0  0  0  0
    6.7091   10.2562   30.3672 C   0  0  0  0  0  0  0  0  0  0  0  0
    7.0544   11.5017   30.8868 C   0  0  0  0  0  0  0  0  0  0  0  0
    6.8053   12.6558   30.1483 C   0  0  0  0  0  0  0  0  0  0  0  0
    6.2140   12.5651   28.8882 C   0  0  0  0  0  0  0  0  0  0  0  0
    7.9560   13.2623   26.0356 C   0  0  0  0  0  0  0  0  0  0  0  0
   11.8553   15.1885   23.5343 C   0  0  0  0  0  0  0  0  0  0  0  0
   12.0282   15.7343   22.1305 C   0  0  0  0  0  0  0  0  0  0  0  0
   10.7903   15.4469   21.4859 N   0  0  0  0  0  0  0  0  0  0  0  0
    9.9496   14.6914   22.2660 C   0  0  0  0  0  0  0  0  0  0  0  0
    8.7727   14.5301   22.0009 O   0  0  0  0  0  0  0  0  0  0  0  0
  2  1  1  6
  2  3  1  0
  3  4  2  0
  3  5  1  0
  5  6  1  0
  6  7  1  0
  7  8  1  0
  8  9  1  0
  9 10  1  1
 10 11  1  0
 11 12  1  0
 12 13  2  0
 13 14  1  0
 14 15  2  0
 15 16  1  0
 16 17  2  0
  9 18  1  0
  2 19  1  0
 19 20  1  0
 20 21  1  0
 21 22  1  0
 22 23  2  0
 22  2  1  0
 18  5  1  0
 17 12  1  0
M  END
>  <Crystalforms alias>  (64) 
nan

>  <original ID>  (64) 
VKBQMFODLXELEV-CRAIPNDOSA-N

>  <alias>  (64) 
None

>  <distance_score>  (64) 
1.890821

>  <CanonSites upload name>  (64) 
nan

>  <CanonSites alias>  (64) 
nan

>  <ConformerSites alias>  (64) 
nan

>  <observation_longname>  (64) 
nan

>  <CrystalformSites alias>  (64) 
nan

>  <tags>  (64) 
[]

>  <ref_mols>  (64) 
A0528a,A0365a

>  <ref_pdb>  (64) 
A0310a

>  <Quatassemblies upload name>  (64) 
nan

>  <inchikey>  (64) 
VKBQMFODLXELEV-CRAIPNDOSA-N

>  <Experiment code>  (64) 
nan

>  <Quatassemblies alias>  (64) 
nan

>  <Crystalforms upload name>  (64) 
nan

>  <Centroid res>  (64) 
nan

>  <ConformerSites upload name>  (64) 
nan

>  <energy_score>  (64) 
-4.658293

>  <original SMILES>  (64) 
C[C@@]1(C(=O)N2CCC[C@@H](NCc3ccccc3)C2)CCNC1=O

>  <exports>  (64) 
nan

>  <CrystalformSites upload name>  (64) 
nan

>  <name>  (64) 
VKBQMFODLXELEV-CRAIPNDOSA-N

>  <HIPPO ID>  (64) 
33105

$$$$
VKBQMFODLXELEV-QAPCUYQASA-N
     RDKit          3D

 23 25  0  0  0  0  0  0  0  0999 V2000
   11.4800   15.4394   24.3355 C   0  0  0  0  0  0  0  0  0  0  0  0
   10.7634   14.2754   23.5936 C   0  0  2  0  0  0  0  0  0  0  0  0
    9.7261   13.6498   24.5519 C   0  0  0  0  0  0  0  0  0  0  0  0
    9.3280   14.3256   25.5122 O   0  0  0  0  0  0  0  0  0  0  0  0
    9.1518   12.4017   24.3940 N   0  0  0  0  0  0  0  0  0  0  0  0
    9.1663   11.6667   23.1650 C   0  0  0  0  0  0  0  0  0  0  0  0
    9.2672   10.1879   23.4180 C   0  0  0  0  0  0  0  0  0  0  0  0
    8.3311    9.7267   24.5174 C   0  0  0  0  0  0  0  0  0  0  0  0
    7.3368   10.7380   25.0648 C   0  0  1  0  0  0  0  0  0  0  0  0
    6.7161   10.1607   26.2592 N   0  0  0  0  0  0  0  0  0  0  0  0
    5.6771   10.9594   26.8899 C   0  0  0  0  0  0  0  0  0  0  0  0
    6.0670   11.2349   28.3214 C   0  0  0  0  0  0  0  0  0  0  0  0
    6.0135   10.2084   29.2781 C   0  0  0  0  0  0  0  0  0  0  0  0
    6.4735   10.4261   30.5767 C   0  0  0  0  0  0  0  0  0  0  0  0
    6.9897   11.6710   30.9318 C   0  0  0  0  0  0  0  0  0  0  0  0
    7.0367   12.7011   29.9938 C   0  0  0  0  0  0  0  0  0  0  0  0
    6.5748   12.4863   28.6953 C   0  0  0  0  0  0  0  0  0  0  0  0
    7.9521   12.1324   25.2128 C   0  0  0  0  0  0  0  0  0  0  0  0
   11.9257   13.5068   22.9643 C   0  0  0  0  0  0  0  0  0  0  0  0
   12.2734   14.3540   21.7344 C   0  0  0  0  0  0  0  0  0  0  0  0
   11.0598   15.0048   21.3711 N   0  0  0  0  0  0  0  0  0  0  0  0
   10.0893   14.7426   22.3067 C   0  0  0  0  0  0  0  0  0  0  0  0
    8.8983   14.8032   22.0563 O   0  0  0  0  0  0  0  0  0  0  0  0
  2  1  1  1
  2  3  1  0
  3  4  2  0
  3  5  1  0
  5  6  1  0
  6  7  1  0
  7  8  1  0
  8  9  1  0
  9 10  1  1
 10 11  1  0
 11 12  1  0
 12 13  2  0
 13 14  1  0
 14 15  2  0
 15 16  1  0
 16 17  2  0
  9 18  1  0
  2 19  1  0
 19 20  1  0
 20 21  1  0
 21 22  1  0
 22 23  2  0
 22  2  1  0
 18  5  1  0
 17 12  1  0
M  END
>  <Crystalforms alias>  (65) 
nan

>  <original ID>  (65) 
VKBQMFODLXELEV-QAPCUYQASA-N

>  <alias>  (65) 
None

>  <distance_score>  (65) 
1.629334

>  <CanonSites upload name>  (65) 
nan

>  <CanonSites alias>  (65) 
nan

>  <ConformerSites alias>  (65) 
nan

>  <observation_longname>  (65) 
nan

>  <CrystalformSites alias>  (65) 
nan

>  <tags>  (65) 
[]

>  <ref_mols>  (65) 
A0528a,A0365a

>  <ref_pdb>  (65) 
A0310a

>  <Quatassemblies upload name>  (65) 
nan

>  <inchikey>  (65) 
VKBQMFODLXELEV-QAPCUYQASA-N

>  <Experiment code>  (65) 
nan

>  <Quatassemblies alias>  (65) 
nan

>  <Crystalforms upload name>  (65) 
nan

>  <Centroid res>  (65) 
nan

>  <ConformerSites upload name>  (65) 
nan

>  <energy_score>  (65) 
-46.644629

>  <original SMILES>  (65) 
C[C@]1(C(=O)N2CCC[C@@H](NCc3ccccc3)C2)CCNC1=O

>  <exports>  (65) 
nan

>  <CrystalformSites upload name>  (65) 
nan

>  <name>  (65) 
VKBQMFODLXELEV-QAPCUYQASA-N

>  <HIPPO ID>  (65) 
33106

$$$$
VKBQMFODLXELEV-CRAIPNDOSA-N
     RDKit          3D

 23 25  0  0  0  0  0  0  0  0999 V2000
   11.4342   12.9145   22.2847 C   0  0  0  0  0  0  0  0  0  0  0  0
   10.3922   13.9317   22.6633 C   0  0  1  0  0  0  0  0  0  0  0  0
    9.0064   13.2142   22.9217 C   0  0  0  0  0  0  0  0  0  0  0  0
    7.9512   13.5276   22.3808 O   0  0  0  0  0  0  0  0  0  0  0  0
    8.9641   12.1673   23.8494 N   0  0  0  0  0  0  0  0  0  0  0  0
    9.5338   12.5823   25.0379 C   0  0  0  0  0  0  0  0  0  0  0  0
    8.5273   13.5384   25.6947 C   0  0  0  0  0  0  0  0  0  0  0  0
    7.3226   12.7343   26.1866 C   0  0  0  0  0  0  0  0  0  0  0  0
    7.3223   11.2820   25.6709 C   0  0  1  0  0  0  0  0  0  0  0  0
    6.1446   10.4634   25.9683 N   0  0  0  0  0  0  0  0  0  0  0  0
    5.2307   10.8877   27.0260 C   0  0  0  0  0  0  0  0  0  0  0  0
    5.7882   11.0079   28.4260 C   0  0  0  0  0  0  0  0  0  0  0  0
    6.1787    9.8773   29.1479 C   0  0  0  0  0  0  0  0  0  0  0  0
    6.7213   10.0083   30.4304 C   0  0  0  0  0  0  0  0  0  0  0  0
    6.8836   11.2682   31.0023 C   0  0  0  0  0  0  0  0  0  0  0  0
    6.4562   12.3976   30.3150 C   0  0  0  0  0  0  0  0  0  0  0  0
    5.8818   12.2626   29.0517 C   0  0  0  0  0  0  0  0  0  0  0  0
    7.7273   11.3758   24.1526 C   0  0  0  0  0  0  0  0  0  0  0  0
   11.1243   14.7689   23.7521 C   0  0  0  0  0  0  0  0  0  0  0  0
   11.8754   15.8329   22.9885 C   0  0  0  0  0  0  0  0  0  0  0  0
   11.1879   15.9596   21.7599 N   0  0  0  0  0  0  0  0  0  0  0  0
   10.2385   14.9834   21.5828 C   0  0  0  0  0  0  0  0  0  0  0  0
    9.4017   15.0707   20.7044 O   0  0  0  0  0  0  0  0  0  0  0  0
  2  1  1  6
  2  3  1  0
  3  4  2  0
  3  5  1  0
  5  6  1  0
  6  7  1  0
  7  8  1  0
  8  9  1  0
  9 10  1  6
 10 11  1  0
 11 12  1  0
 12 13  2  0
 13 14  1  0
 14 15  2  0
 15 16  1  0
 16 17  2  0
  9 18  1  0
  2 19  1  0
 19 20  1  0
 20 21  1  0
 21 22  1  0
 22 23  2  0
 22  2  1  0
 18  5  1  0
 17 12  1  0
M  END
>  <Crystalforms alias>  (66) 
nan

>  <original ID>  (66) 
VKBQMFODLXELEV-CRAIPNDOSA-N

>  <alias>  (66) 
None

>  <distance_score>  (66) 
1.729603

>  <CanonSites upload name>  (66) 
nan

>  <CanonSites alias>  (66) 
nan

>  <ConformerSites alias>  (66) 
nan

>  <observation_longname>  (66) 
nan

>  <CrystalformSites alias>  (66) 
nan

>  <tags>  (66) 
[]

>  <ref_mols>  (66) 
A0528a,A0365a

>  <ref_pdb>  (66) 
A0310a

>  <Quatassemblies upload name>  (66) 
nan

>  <inchikey>  (66) 
VKBQMFODLXELEV-CRAIPNDOSA-N

>  <Experiment code>  (66) 
nan

>  <Quatassemblies alias>  (66) 
nan

>  <Crystalforms upload name>  (66) 
nan

>  <Centroid res>  (66) 
nan

>  <ConformerSites upload name>  (66) 
nan

>  <energy_score>  (66) 
24.921811

>  <original SMILES>  (66) 
C[C@@]1(C(=O)N2CCC[C@@H](NCc3ccccc3)C2)CCNC1=O

>  <exports>  (66) 
nan

>  <CrystalformSites upload name>  (66) 
nan

>  <name>  (66) 
VKBQMFODLXELEV-CRAIPNDOSA-N

>  <HIPPO ID>  (66) 
33107

$$$$
MMFGTXMLRZLZQV-ZIAGYGMSSA-N
     RDKit          3D

 23 25  0  0  0  0  0  0  0  0999 V2000
    3.9996   11.4289   27.3515 O   0  0  0  0  0  0  0  0  0  0  0  0
    5.2081   11.4156   27.1310 C   0  0  0  0  0  0  0  0  0  0  0  0
    5.6429   11.5227   25.8539 N   0  0  0  0  0  0  0  0  0  0  0  0
    6.8971   11.3973   25.1415 C   0  0  2  0  0  0  0  0  0  0  0  0
    7.5838   10.0754   25.2991 C   0  0  0  0  0  0  0  0  0  0  0  0
    8.6458    9.8677   24.2292 C   0  0  0  0  0  0  0  0  0  0  0  0
    9.2149   11.1350   23.6284 C   0  0  0  0  0  0  0  0  0  0  0  0
    9.0891   12.3324   24.4475 N   0  0  0  0  0  0  0  0  0  0  0  0
    9.8157   13.4881   24.1942 C   0  0  0  0  0  0  0  0  0  0  0  0
    9.7530   14.4248   24.9913 O   0  0  0  0  0  0  0  0  0  0  0  0
   10.6399   13.5783   22.9300 C   0  0  2  0  0  0  0  0  0  0  0  0
   12.0719   14.0171   23.2089 C   0  0  0  0  0  0  0  0  0  0  0  0
   12.1149   15.4755   22.8133 C   0  0  0  0  0  0  0  0  0  0  0  0
   11.0778   15.6136   21.8418 N   0  0  0  0  0  0  0  0  0  0  0  0
   10.1159   14.6455   22.0100 C   0  0  0  0  0  0  0  0  0  0  0  0
    8.9973   14.7022   21.5260 O   0  0  0  0  0  0  0  0  0  0  0  0
    7.8592   12.5485   25.2209 C   0  0  0  0  0  0  0  0  0  0  0  0
    6.1102   11.3555   28.2778 C   0  0  0  0  0  0  0  0  0  0  0  0
    6.0865   10.2267   29.1026 C   0  0  0  0  0  0  0  0  0  0  0  0
    6.7686   10.2503   30.3204 C   0  0  0  0  0  0  0  0  0  0  0  0
    7.4534   11.4021   30.7149 C   0  0  0  0  0  0  0  0  0  0  0  0
    7.4527   12.5355   29.8988 C   0  0  0  0  0  0  0  0  0  0  0  0
    6.7723   12.5180   28.6810 C   0  0  0  0  0  0  0  0  0  0  0  0
  1  2  2  0
  2  3  1  0
  4  3  1  1
  4  5  1  0
  5  6  1  0
  6  7  1  0
  7  8  1  0
  8  9  1  0
  9 10  2  0
 11  9  1  1
 11 12  1  0
 12 13  1  0
 13 14  1  0
 14 15  1  0
 15 16  2  0
  8 17  1  0
  2 18  1  0
 18 19  2  0
 19 20  1  0
 20 21  2  0
 21 22  1  0
 22 23  2  0
 17  4  1  0
 23 18  1  0
 15 11  1  0
M  END
>  <Crystalforms alias>  (67) 
nan

>  <original ID>  (67) 
MMFGTXMLRZLZQV-ZIAGYGMSSA-N

>  <alias>  (67) 
None

>  <distance_score>  (67) 
1.48263

>  <CanonSites upload name>  (67) 
nan

>  <CanonSites alias>  (67) 
nan

>  <ConformerSites alias>  (67) 
nan

>  <observation_longname>  (67) 
nan

>  <CrystalformSites alias>  (67) 
nan

>  <tags>  (67) 
[]

>  <ref_mols>  (67) 
A0528a,A0365a

>  <ref_pdb>  (67) 
A0310a

>  <Quatassemblies upload name>  (67) 
nan

>  <inchikey>  (67) 
MMFGTXMLRZLZQV-ZIAGYGMSSA-N

>  <Experiment code>  (67) 
nan

>  <Quatassemblies alias>  (67) 
nan

>  <Crystalforms upload name>  (67) 
nan

>  <Centroid res>  (67) 
nan

>  <ConformerSites upload name>  (67) 
nan

>  <energy_score>  (67) 
-8.811614

>  <original SMILES>  (67) 
O=C(N[C@@H]1CCCN(C(=O)[C@@H]2CCNC2=O)C1)c1ccccc1

>  <exports>  (67) 
nan

>  <CrystalformSites upload name>  (67) 
nan

>  <name>  (67) 
MMFGTXMLRZLZQV-ZIAGYGMSSA-N

>  <HIPPO ID>  (67) 
33561

$$$$
MMFGTXMLRZLZQV-UONOGXRCSA-N
     RDKit          3D

 23 25  0  0  0  0  0  0  0  0999 V2000
    5.0866   10.1163   26.5698 O   0  0  0  0  0  0  0  0  0  0  0  0
    5.5512   11.2150   26.8389 C   0  0  0  0  0  0  0  0  0  0  0  0
    5.8817   12.1291   25.8509 N   0  0  0  0  0  0  0  0  0  0  0  0
    7.0046   11.7645   24.9995 C   0  0  1  0  0  0  0  0  0  0  0  0
    7.2908   12.5836   23.7652 C   0  0  0  0  0  0  0  0  0  0  0  0
    8.4880   11.8546   23.0375 C   0  0  0  0  0  0  0  0  0  0  0  0
    9.5689   11.3126   23.9062 C   0  0  0  0  0  0  0  0  0  0  0  0
    9.5123   12.2376   24.9637 N   0  0  0  0  0  0  0  0  0  0  0  0
    9.9413   13.5634   24.7217 C   0  0  0  0  0  0  0  0  0  0  0  0
    9.5453   14.4727   25.4529 O   0  0  0  0  0  0  0  0  0  0  0  0
   10.8702   13.8464   23.5294 C   0  0  2  0  0  0  0  0  0  0  0  0
   12.0761   14.6822   23.9436 C   0  0  0  0  0  0  0  0  0  0  0  0
   12.3061   15.6534   22.8032 C   0  0  0  0  0  0  0  0  0  0  0  0
   11.1840   15.5482   21.9427 N   0  0  0  0  0  0  0  0  0  0  0  0
   10.2411   14.7005   22.4508 C   0  0  0  0  0  0  0  0  0  0  0  0
    9.0907   14.7100   22.0483 O   0  0  0  0  0  0  0  0  0  0  0  0
    8.2869   11.9645   25.7797 C   0  0  0  0  0  0  0  0  0  0  0  0
    5.9281   11.5118   28.2523 C   0  0  0  0  0  0  0  0  0  0  0  0
    5.9304   10.4316   29.1538 C   0  0  0  0  0  0  0  0  0  0  0  0
    6.4232   10.5849   30.4502 C   0  0  0  0  0  0  0  0  0  0  0  0
    6.9178   11.8203   30.8581 C   0  0  0  0  0  0  0  0  0  0  0  0
    6.9016   12.9032   29.9792 C   0  0  0  0  0  0  0  0  0  0  0  0
    6.4025   12.7551   28.6816 C   0  0  0  0  0  0  0  0  0  0  0  0
  1  2  2  0
  2  3  1  0
  4  3  1  1
  4  5  1  0
  5  6  1  0
  6  7  1  0
  7  8  1  0
  8  9  1  0
  9 10  2  0
 11  9  1  1
 11 12  1  0
 12 13  1  0
 13 14  1  0
 14 15  1  0
 15 16  2  0
  8 17  1  0
  2 18  1  0
 18 19  2  0
 19 20  1  0
 20 21  2  0
 21 22  1  0
 22 23  2  0
 17  4  1  0
 23 18  1  0
 15 11  1  0
M  END
>  <Crystalforms alias>  (68) 
nan

>  <original ID>  (68) 
MMFGTXMLRZLZQV-UONOGXRCSA-N

>  <alias>  (68) 
None

>  <distance_score>  (68) 
1.536513

>  <CanonSites upload name>  (68) 
nan

>  <CanonSites alias>  (68) 
nan

>  <ConformerSites alias>  (68) 
nan

>  <observation_longname>  (68) 
nan

>  <CrystalformSites alias>  (68) 
nan

>  <tags>  (68) 
[]

>  <ref_mols>  (68) 
A0528a,A0365a

>  <ref_pdb>  (68) 
A0310a

>  <Quatassemblies upload name>  (68) 
nan

>  <inchikey>  (68) 
MMFGTXMLRZLZQV-UONOGXRCSA-N

>  <Experiment code>  (68) 
nan

>  <Quatassemblies alias>  (68) 
nan

>  <Crystalforms upload name>  (68) 
nan

>  <Centroid res>  (68) 
nan

>  <ConformerSites upload name>  (68) 
nan

>  <energy_score>  (68) 
13.022069

>  <original SMILES>  (68) 
O=C(N[C@H]1CCCN(C(=O)[C@@H]2CCNC2=O)C1)c1ccccc1

>  <exports>  (68) 
nan

>  <CrystalformSites upload name>  (68) 
nan

>  <name>  (68) 
MMFGTXMLRZLZQV-UONOGXRCSA-N

>  <HIPPO ID>  (68) 
33562

$$$$
MMFGTXMLRZLZQV-KGLIPLIRSA-N
     RDKit          3D

 23 25  0  0  0  0  0  0  0  0999 V2000
    4.2657   11.3780   26.9230 O   0  0  0  0  0  0  0  0  0  0  0  0
    5.4854   11.2753   26.9580 C   0  0  0  0  0  0  0  0  0  0  0  0
    6.2441   11.1986   25.8027 N   0  0  0  0  0  0  0  0  0  0  0  0
    7.5350   11.8529   25.6492 C   0  0  2  0  0  0  0  0  0  0  0  0
    7.3531   13.3653   25.6081 C   0  0  0  0  0  0  0  0  0  0  0  0
    8.6976   14.0788   25.7236 C   0  0  0  0  0  0  0  0  0  0  0  0
    9.8446   13.3865   24.9807 C   0  0  0  0  0  0  0  0  0  0  0  0
    9.3197   12.5459   23.9545 N   0  0  0  0  0  0  0  0  0  0  0  0
    8.9906   13.2685   22.8075 C   0  0  0  0  0  0  0  0  0  0  0  0
    7.8701   13.1305   22.3302 O   0  0  0  0  0  0  0  0  0  0  0  0
   10.0282   14.2843   22.3249 C   0  0  1  0  0  0  0  0  0  0  0  0
   11.4751   13.7856   22.2591 C   0  0  0  0  0  0  0  0  0  0  0  0
   12.0800   14.4831   21.0629 C   0  0  0  0  0  0  0  0  0  0  0  0
   10.9725   14.9514   20.3068 N   0  0  0  0  0  0  0  0  0  0  0  0
    9.7868   14.9059   20.9896 C   0  0  0  0  0  0  0  0  0  0  0  0
    8.7558   15.3961   20.5724 O   0  0  0  0  0  0  0  0  0  0  0  0
    8.4284   11.4363   24.4427 C   0  0  0  0  0  0  0  0  0  0  0  0
    6.1186   11.2563   28.2865 C   0  0  0  0  0  0  0  0  0  0  0  0
    6.1490   10.0573   29.0012 C   0  0  0  0  0  0  0  0  0  0  0  0
    6.6650   10.0450   30.2997 C   0  0  0  0  0  0  0  0  0  0  0  0
    7.1521   11.2201   30.8754 C   0  0  0  0  0  0  0  0  0  0  0  0
    7.0867   12.4214   30.1731 C   0  0  0  0  0  0  0  0  0  0  0  0
    6.5443   12.4447   28.8891 C   0  0  0  0  0  0  0  0  0  0  0  0
  1  2  2  0
  2  3  1  0
  4  3  1  6
  4  5  1  0
  5  6  1  0
  6  7  1  0
  7  8  1  0
  8  9  1  0
  9 10  2  0
 11  9  1  6
 11 12  1  0
 12 13  1  0
 13 14  1  0
 14 15  1  0
 15 16  2  0
  8 17  1  0
  2 18  1  0
 18 19  2  0
 19 20  1  0
 20 21  2  0
 21 22  1  0
 22 23  2  0
 17  4  1  0
 23 18  1  0
 15 11  1  0
M  END
>  <Crystalforms alias>  (69) 
nan

>  <original ID>  (69) 
MMFGTXMLRZLZQV-KGLIPLIRSA-N

>  <alias>  (69) 
None

>  <distance_score>  (69) 
2.231368

>  <CanonSites upload name>  (69) 
nan

>  <CanonSites alias>  (69) 
nan

>  <ConformerSites alias>  (69) 
nan

>  <observation_longname>  (69) 
nan

>  <CrystalformSites alias>  (69) 
nan

>  <tags>  (69) 
[]

>  <ref_mols>  (69) 
A0528a,A0365a

>  <ref_pdb>  (69) 
A0310a

>  <Quatassemblies upload name>  (69) 
nan

>  <inchikey>  (69) 
MMFGTXMLRZLZQV-KGLIPLIRSA-N

>  <Experiment code>  (69) 
nan

>  <Quatassemblies alias>  (69) 
nan

>  <Crystalforms upload name>  (69) 
nan

>  <Centroid res>  (69) 
nan

>  <ConformerSites upload name>  (69) 
nan

>  <energy_score>  (69) 
-5.227382

>  <original SMILES>  (69) 
O=C(N[C@@H]1CCCN(C(=O)[C@H]2CCNC2=O)C1)c1ccccc1

>  <exports>  (69) 
nan

>  <CrystalformSites upload name>  (69) 
nan

>  <name>  (69) 
MMFGTXMLRZLZQV-KGLIPLIRSA-N

>  <HIPPO ID>  (69) 
33563

$$$$
MMFGTXMLRZLZQV-KBPBESRZSA-N
     RDKit          3D

 23 25  0  0  0  0  0  0  0  0999 V2000
    4.5474   11.2676   26.7150 O   0  0  0  0  0  0  0  0  0  0  0  0
    5.7304   10.9848   26.8566 C   0  0  0  0  0  0  0  0  0  0  0  0
    6.4420   10.2997   25.8970 N   0  0  0  0  0  0  0  0  0  0  0  0
    7.7875   10.6435   25.4107 C   0  0  1  0  0  0  0  0  0  0  0  0
    8.3754    9.5860   24.4779 C   0  0  0  0  0  0  0  0  0  0  0  0
    9.5830    9.9441   23.6366 C   0  0  0  0  0  0  0  0  0  0  0  0
    9.6375   11.3922   23.2206 C   0  0  0  0  0  0  0  0  0  0  0  0
    9.2048   12.3150   24.2358 N   0  0  0  0  0  0  0  0  0  0  0  0
    9.6517   13.6140   24.3587 C   0  0  0  0  0  0  0  0  0  0  0  0
    9.2337   14.2861   25.3133 O   0  0  0  0  0  0  0  0  0  0  0  0
   10.5927   14.3109   23.3935 C   0  0  1  0  0  0  0  0  0  0  0  0
   11.9866   13.8812   22.9774 C   0  0  0  0  0  0  0  0  0  0  0  0
   12.2781   14.8629   21.8426 C   0  0  0  0  0  0  0  0  0  0  0  0
   10.9979   15.1112   21.2604 N   0  0  0  0  0  0  0  0  0  0  0  0
    9.9736   14.6922   22.0766 C   0  0  0  0  0  0  0  0  0  0  0  0
    8.8010   14.6694   21.7549 O   0  0  0  0  0  0  0  0  0  0  0  0
    7.8668   12.0243   24.7778 C   0  0  0  0  0  0  0  0  0  0  0  0
    6.3336   11.2657   28.1581 C   0  0  0  0  0  0  0  0  0  0  0  0
    6.3039   10.2561   29.1285 C   0  0  0  0  0  0  0  0  0  0  0  0
    6.7968   10.5167   30.4061 C   0  0  0  0  0  0  0  0  0  0  0  0
    7.2973   11.7847   30.7095 C   0  0  0  0  0  0  0  0  0  0  0  0
    7.2908   12.7973   29.7450 C   0  0  0  0  0  0  0  0  0  0  0  0
    6.7960   12.5446   28.4653 C   0  0  0  0  0  0  0  0  0  0  0  0
  1  2  2  0
  2  3  1  0
  4  3  1  6
  4  5  1  0
  5  6  1  0
  6  7  1  0
  7  8  1  0
  8  9  1  0
  9 10  2  0
 11  9  1  6
 11 12  1  0
 12 13  1  0
 13 14  1  0
 14 15  1  0
 15 16  2  0
  8 17  1  0
  2 18  1  0
 18 19  2  0
 19 20  1  0
 20 21  2  0
 21 22  1  0
 22 23  2  0
 17  4  1  0
 23 18  1  0
 15 11  1  0
M  END
>  <Crystalforms alias>  (70) 
nan

>  <original ID>  (70) 
MMFGTXMLRZLZQV-KBPBESRZSA-N

>  <alias>  (70) 
None

>  <distance_score>  (70) 
1.660324

>  <CanonSites upload name>  (70) 
nan

>  <CanonSites alias>  (70) 
nan

>  <ConformerSites alias>  (70) 
nan

>  <observation_longname>  (70) 
nan

>  <CrystalformSites alias>  (70) 
nan

>  <tags>  (70) 
[]

>  <ref_mols>  (70) 
A0528a,A0365a

>  <ref_pdb>  (70) 
A0310a

>  <Quatassemblies upload name>  (70) 
nan

>  <inchikey>  (70) 
MMFGTXMLRZLZQV-KBPBESRZSA-N

>  <Experiment code>  (70) 
nan

>  <Quatassemblies alias>  (70) 
nan

>  <Crystalforms upload name>  (70) 
nan

>  <Centroid res>  (70) 
nan

>  <ConformerSites upload name>  (70) 
nan

>  <energy_score>  (70) 
-17.83914

>  <original SMILES>  (70) 
O=C(N[C@H]1CCCN(C(=O)[C@H]2CCNC2=O)C1)c1ccccc1

>  <exports>  (70) 
nan

>  <CrystalformSites upload name>  (70) 
nan

>  <name>  (70) 
MMFGTXMLRZLZQV-KBPBESRZSA-N

>  <HIPPO ID>  (70) 
33564

$$$$
ACBGICSPNLHHML-KSSFIOAISA-N
     RDKit          3D

 24 26  0  0  0  0  0  0  0  0999 V2000
   11.2610   15.5167   23.2891 C   0  0  0  0  0  0  0  0  0  0  0  0
   10.5633   14.4326   22.4101 C   0  0  2  0  0  0  0  0  0  0  0  0
    9.3605   13.4796   22.8436 C   0  0  0  0  0  0  0  0  0  0  0  0
    8.2320   13.4993   22.3586 O   0  0  0  0  0  0  0  0  0  0  0  0
    9.5934   12.5419   23.8409 N   0  0  0  0  0  0  0  0  0  0  0  0
   10.0997   13.1782   24.9767 C   0  0  0  0  0  0  0  0  0  0  0  0
    8.9697   13.9834   25.6061 C   0  0  0  0  0  0  0  0  0  0  0  0
    7.7438   13.1465   25.9636 C   0  0  0  0  0  0  0  0  0  0  0  0
    7.4031   11.9402   25.0681 C   0  0  2  0  0  0  0  0  0  0  0  0
    6.8142   10.8406   25.9126 N   0  0  0  0  0  0  0  0  0  0  0  0
    5.7533   11.1982   26.7468 C   0  0  0  0  0  0  0  0  0  0  0  0
    4.6694   11.6054   26.3613 O   0  0  0  0  0  0  0  0  0  0  0  0
    6.0357   11.1904   28.1950 C   0  0  0  0  0  0  0  0  0  0  0  0
    6.1602    9.9907   28.8926 C   0  0  0  0  0  0  0  0  0  0  0  0
    6.4837   10.0235   30.2520 C   0  0  0  0  0  0  0  0  0  0  0  0
    6.6862   11.2439   30.9008 C   0  0  0  0  0  0  0  0  0  0  0  0
    6.5154   12.4408   30.2088 C   0  0  0  0  0  0  0  0  0  0  0  0
    6.1598   12.4143   28.8627 C   0  0  0  0  0  0  0  0  0  0  0  0
    8.6141   11.4725   24.1968 C   0  0  0  0  0  0  0  0  0  0  0  0
   11.7643   13.5656   22.0170 C   0  0  0  0  0  0  0  0  0  0  0  0
   12.2905   14.2332   20.7647 C   0  0  0  0  0  0  0  0  0  0  0  0
   11.1777   14.8793   20.1821 N   0  0  0  0  0  0  0  0  0  0  0  0
   10.1631   15.0607   21.0769 C   0  0  0  0  0  0  0  0  0  0  0  0
    9.1461   15.6645   20.7915 O   0  0  0  0  0  0  0  0  0  0  0  0
  2  1  1  1
  2  3  1  0
  3  4  2  0
  3  5  1  0
  5  6  1  0
  6  7  1  0
  7  8  1  0
  8  9  1  0
  9 10  1  1
 10 11  1  0
 11 12  2  0
 11 13  1  0
 13 14  2  0
 14 15  1  0
 15 16  2  0
 16 17  1  0
 17 18  2  0
  9 19  1  0
  2 20  1  0
 20 21  1  0
 21 22  1  0
 22 23  1  0
 23 24  2  0
 23  2  1  0
 19  5  1  0
 18 13  1  0
M  END
>  <Crystalforms alias>  (71) 
nan

>  <original ID>  (71) 
ACBGICSPNLHHML-KSSFIOAISA-N

>  <alias>  (71) 
None

>  <distance_score>  (71) 
2.087195

>  <CanonSites upload name>  (71) 
nan

>  <CanonSites alias>  (71) 
nan

>  <ConformerSites alias>  (71) 
nan

>  <observation_longname>  (71) 
nan

>  <CrystalformSites alias>  (71) 
nan

>  <tags>  (71) 
[]

>  <ref_mols>  (71) 
A0528a,A0365a

>  <ref_pdb>  (71) 
A0310a

>  <Quatassemblies upload name>  (71) 
nan

>  <inchikey>  (71) 
ACBGICSPNLHHML-KSSFIOAISA-N

>  <Experiment code>  (71) 
nan

>  <Quatassemblies alias>  (71) 
nan

>  <Crystalforms upload name>  (71) 
nan

>  <Centroid res>  (71) 
nan

>  <ConformerSites upload name>  (71) 
nan

>  <energy_score>  (71) 
14.024798

>  <original SMILES>  (71) 
C[C@]1(C(=O)N2CCC[C@H](NC(=O)c3ccccc3)C2)CCNC1=O

>  <exports>  (71) 
nan

>  <CrystalformSites upload name>  (71) 
nan

>  <name>  (71) 
ACBGICSPNLHHML-KSSFIOAISA-N

>  <HIPPO ID>  (71) 
34320

$$$$
ACBGICSPNLHHML-KBXCAEBGSA-N
     RDKit          3D

 24 26  0  0  0  0  0  0  0  0999 V2000
   11.0501   12.6093   22.7368 C   0  0  0  0  0  0  0  0  0  0  0  0
   10.4583   13.9035   23.1980 C   0  0  1  0  0  0  0  0  0  0  0  0
    9.4286   13.5647   24.2482 C   0  0  0  0  0  0  0  0  0  0  0  0
    9.5433   13.9448   25.4107 O   0  0  0  0  0  0  0  0  0  0  0  0
    8.3727   12.7310   23.8570 N   0  0  0  0  0  0  0  0  0  0  0  0
    7.1771   13.5182   23.6370 C   0  0  0  0  0  0  0  0  0  0  0  0
    6.5516   13.9928   24.9323 C   0  0  0  0  0  0  0  0  0  0  0  0
    6.6660   12.9766   26.0521 C   0  0  0  0  0  0  0  0  0  0  0  0
    6.8539   11.5561   25.5215 C   0  0  2  0  0  0  0  0  0  0  0  0
    6.7800   10.5355   26.5651 N   0  0  0  0  0  0  0  0  0  0  0  0
    5.7204   10.6810   27.4456 C   0  0  0  0  0  0  0  0  0  0  0  0
    4.5463   10.7508   27.1230 O   0  0  0  0  0  0  0  0  0  0  0  0
    6.1283   10.8192   28.8523 C   0  0  0  0  0  0  0  0  0  0  0  0
    5.9495    9.7357   29.7067 C   0  0  0  0  0  0  0  0  0  0  0  0
    6.4109    9.8233   31.0195 C   0  0  0  0  0  0  0  0  0  0  0  0
    7.0340   10.9896   31.4717 C   0  0  0  0  0  0  0  0  0  0  0  0
    7.1791   12.0837   30.6232 C   0  0  0  0  0  0  0  0  0  0  0  0
    6.7173   12.0019   29.3138 C   0  0  0  0  0  0  0  0  0  0  0  0
    8.1348   11.5008   24.6551 C   0  0  0  0  0  0  0  0  0  0  0  0
   11.5960   14.7852   23.7677 C   0  0  0  0  0  0  0  0  0  0  0  0
   12.0474   15.6490   22.6106 C   0  0  0  0  0  0  0  0  0  0  0  0
   10.9841   15.5910   21.6678 N   0  0  0  0  0  0  0  0  0  0  0  0
    9.9931   14.7150   22.0231 C   0  0  0  0  0  0  0  0  0  0  0  0
    8.9240   14.6783   21.4423 O   0  0  0  0  0  0  0  0  0  0  0  0
  2  1  1  6
  2  3  1  0
  3  4  2  0
  3  5  1  0
  5  6  1  0
  6  7  1  0
  7  8  1  0
  8  9  1  0
  9 10  1  1
 10 11  1  0
 11 12  2  0
 11 13  1  0
 13 14  2  0
 14 15  1  0
 15 16  2  0
 16 17  1  0
 17 18  2  0
  9 19  1  0
  2 20  1  0
 20 21  1  0
 21 22  1  0
 22 23  1  0
 23 24  2  0
 23  2  1  0
 19  5  1  0
 18 13  1  0
M  END
>  <Crystalforms alias>  (72) 
nan

>  <original ID>  (72) 
ACBGICSPNLHHML-KBXCAEBGSA-N

>  <alias>  (72) 
None

>  <distance_score>  (72) 
2.284005

>  <CanonSites upload name>  (72) 
nan

>  <CanonSites alias>  (72) 
nan

>  <ConformerSites alias>  (72) 
nan

>  <observation_longname>  (72) 
nan

>  <CrystalformSites alias>  (72) 
nan

>  <tags>  (72) 
[]

>  <ref_mols>  (72) 
A0528a,A0365a

>  <ref_pdb>  (72) 
A0310a

>  <Quatassemblies upload name>  (72) 
nan

>  <inchikey>  (72) 
ACBGICSPNLHHML-KBXCAEBGSA-N

>  <Experiment code>  (72) 
nan

>  <Quatassemblies alias>  (72) 
nan

>  <Crystalforms upload name>  (72) 
nan

>  <Centroid res>  (72) 
nan

>  <ConformerSites upload name>  (72) 
nan

>  <energy_score>  (72) 
-0.059611

>  <original SMILES>  (72) 
C[C@@]1(C(=O)N2CCC[C@H](NC(=O)c3ccccc3)C2)CCNC1=O

>  <exports>  (72) 
nan

>  <CrystalformSites upload name>  (72) 
nan

>  <name>  (72) 
ACBGICSPNLHHML-KBXCAEBGSA-N

>  <HIPPO ID>  (72) 
34321

$$$$
ACBGICSPNLHHML-KSSFIOAISA-N
     RDKit          3D

 24 26  0  0  0  0  0  0  0  0999 V2000
   10.7502   14.6488   24.6695 C   0  0  0  0  0  0  0  0  0  0  0  0
   10.6070   13.9037   23.3289 C   0  0  2  0  0  0  0  0  0  0  0  0
    9.8905   12.5824   23.5937 C   0  0  0  0  0  0  0  0  0  0  0  0
   10.5320   11.5327   23.5742 O   0  0  0  0  0  0  0  0  0  0  0  0
    8.5935   12.5291   24.0653 N   0  0  0  0  0  0  0  0  0  0  0  0
    7.6036   13.5432   23.8086 C   0  0  0  0  0  0  0  0  0  0  0  0
    6.9626   14.0187   25.0834 C   0  0  0  0  0  0  0  0  0  0  0  0
    6.8649   12.9346   26.1267 C   0  0  0  0  0  0  0  0  0  0  0  0
    6.7937   11.5352   25.5037 C   0  0  2  0  0  0  0  0  0  0  0  0
    6.5051   10.5323   26.5112 N   0  0  0  0  0  0  0  0  0  0  0  0
    5.4652   10.8166   27.3816 C   0  0  0  0  0  0  0  0  0  0  0  0
    4.3791   11.2841   27.0762 O   0  0  0  0  0  0  0  0  0  0  0  0
    5.8828   10.8046   28.7945 C   0  0  0  0  0  0  0  0  0  0  0  0
    5.9347    9.6194   29.5130 C   0  0  0  0  0  0  0  0  0  0  0  0
    6.4512    9.6441   30.8102 C   0  0  0  0  0  0  0  0  0  0  0  0
    6.9276   10.8358   31.3658 C   0  0  0  0  0  0  0  0  0  0  0  0
    6.8541   12.0240   30.6462 C   0  0  0  0  0  0  0  0  0  0  0  0
    6.3142   12.0113   29.3657 C   0  0  0  0  0  0  0  0  0  0  0  0
    8.0760   11.2806   24.6732 C   0  0  0  0  0  0  0  0  0  0  0  0
   12.0521   13.6913   22.8085 C   0  0  0  0  0  0  0  0  0  0  0  0
   12.4217   15.0267   22.1879 C   0  0  0  0  0  0  0  0  0  0  0  0
   11.1746   15.5285   21.7240 N   0  0  0  0  0  0  0  0  0  0  0  0
   10.1396   14.7268   22.1431 C   0  0  0  0  0  0  0  0  0  0  0  0
    9.0726   14.7286   21.5549 O   0  0  0  0  0  0  0  0  0  0  0  0
  2  1  1  1
  2  3  1  0
  3  4  2  0
  3  5  1  0
  5  6  1  0
  6  7  1  0
  7  8  1  0
  8  9  1  0
  9 10  1  1
 10 11  1  0
 11 12  2  0
 11 13  1  0
 13 14  2  0
 14 15  1  0
 15 16  2  0
 16 17  1  0
 17 18  2  0
  9 19  1  0
  2 20  1  0
 20 21  1  0
 21 22  1  0
 22 23  1  0
 23 24  2  0
 23  2  1  0
 19  5  1  0
 18 13  1  0
M  END
>  <Crystalforms alias>  (73) 
nan

>  <original ID>  (73) 
ACBGICSPNLHHML-KSSFIOAISA-N

>  <alias>  (73) 
None

>  <distance_score>  (73) 
1.992518

>  <CanonSites upload name>  (73) 
nan

>  <CanonSites alias>  (73) 
nan

>  <ConformerSites alias>  (73) 
nan

>  <observation_longname>  (73) 
nan

>  <CrystalformSites alias>  (73) 
nan

>  <tags>  (73) 
[]

>  <ref_mols>  (73) 
A0528a,A0365a

>  <ref_pdb>  (73) 
A0310a

>  <Quatassemblies upload name>  (73) 
nan

>  <inchikey>  (73) 
ACBGICSPNLHHML-KSSFIOAISA-N

>  <Experiment code>  (73) 
nan

>  <Quatassemblies alias>  (73) 
nan

>  <Crystalforms upload name>  (73) 
nan

>  <Centroid res>  (73) 
nan

>  <ConformerSites upload name>  (73) 
nan

>  <energy_score>  (73) 
-17.346329

>  <original SMILES>  (73) 
C[C@]1(C(=O)N2CCC[C@H](NC(=O)c3ccccc3)C2)CCNC1=O

>  <exports>  (73) 
nan

>  <CrystalformSites upload name>  (73) 
nan

>  <name>  (73) 
ACBGICSPNLHHML-KSSFIOAISA-N

>  <HIPPO ID>  (73) 
34322

$$$$
ACBGICSPNLHHML-RDTXWAMCSA-N
     RDKit          3D

 24 26  0  0  0  0  0  0  0  0999 V2000
   11.7038   13.0326   22.7669 C   0  0  0  0  0  0  0  0  0  0  0  0
   10.7180   13.9984   23.3445 C   0  0  1  0  0  0  0  0  0  0  0  0
    9.6793   13.5088   24.3837 C   0  0  0  0  0  0  0  0  0  0  0  0
    9.2778   14.3161   25.2332 O   0  0  0  0  0  0  0  0  0  0  0  0
    9.1190   12.2199   24.3935 N   0  0  0  0  0  0  0  0  0  0  0  0
    9.4879   11.2004   23.4384 C   0  0  0  0  0  0  0  0  0  0  0  0
    9.0069    9.7965   23.6471 C   0  0  0  0  0  0  0  0  0  0  0  0
    8.0747    9.6235   24.7938 C   0  0  0  0  0  0  0  0  0  0  0  0
    7.1548   10.7396   25.1719 C   0  0  1  0  0  0  0  0  0  0  0  0
    6.6120   10.3980   26.4834 N   0  0  0  0  0  0  0  0  0  0  0  0
    5.6758   11.1833   27.1019 C   0  0  0  0  0  0  0  0  0  0  0  0
    4.8673   11.9083   26.5507 O   0  0  0  0  0  0  0  0  0  0  0  0
    5.9218   11.2511   28.5538 C   0  0  0  0  0  0  0  0  0  0  0  0
    5.9412   10.1002   29.3455 C   0  0  0  0  0  0  0  0  0  0  0  0
    6.3913   10.1904   30.6621 C   0  0  0  0  0  0  0  0  0  0  0  0
    6.8280   11.4170   31.1704 C   0  0  0  0  0  0  0  0  0  0  0  0
    6.7985   12.5637   30.3752 C   0  0  0  0  0  0  0  0  0  0  0  0
    6.3390   12.4844   29.0642 C   0  0  0  0  0  0  0  0  0  0  0  0
    7.8163   12.1154   25.0764 C   0  0  0  0  0  0  0  0  0  0  0  0
   11.6194   15.1233   23.9108 C   0  0  0  0  0  0  0  0  0  0  0  0
   11.9296   15.9899   22.7007 C   0  0  0  0  0  0  0  0  0  0  0  0
   10.8858   15.7178   21.7612 N   0  0  0  0  0  0  0  0  0  0  0  0
   10.0476   14.7185   22.2026 C   0  0  0  0  0  0  0  0  0  0  0  0
    8.9407   14.5046   21.7404 O   0  0  0  0  0  0  0  0  0  0  0  0
  2  1  1  6
  2  3  1  0
  3  4  2  0
  3  5  1  0
  5  6  1  0
  6  7  1  0
  7  8  1  0
  8  9  1  0
  9 10  1  1
 10 11  1  0
 11 12  2  0
 11 13  1  0
 13 14  2  0
 14 15  1  0
 15 16  2  0
 16 17  1  0
 17 18  2  0
  9 19  1  0
  2 20  1  0
 20 21  1  0
 21 22  1  0
 22 23  1  0
 23 24  2  0
 23  2  1  0
 19  5  1  0
 18 13  1  0
M  END
>  <Crystalforms alias>  (74) 
nan

>  <original ID>  (74) 
ACBGICSPNLHHML-RDTXWAMCSA-N

>  <alias>  (74) 
None

>  <distance_score>  (74) 
1.508602

>  <CanonSites upload name>  (74) 
nan

>  <CanonSites alias>  (74) 
nan

>  <ConformerSites alias>  (74) 
nan

>  <observation_longname>  (74) 
nan

>  <CrystalformSites alias>  (74) 
nan

>  <tags>  (74) 
[]

>  <ref_mols>  (74) 
A0528a,A0365a

>  <ref_pdb>  (74) 
A0310a

>  <Quatassemblies upload name>  (74) 
nan

>  <inchikey>  (74) 
ACBGICSPNLHHML-RDTXWAMCSA-N

>  <Experiment code>  (74) 
nan

>  <Quatassemblies alias>  (74) 
nan

>  <Crystalforms upload name>  (74) 
nan

>  <Centroid res>  (74) 
nan

>  <ConformerSites upload name>  (74) 
nan

>  <energy_score>  (74) 
12.952935

>  <original SMILES>  (74) 
C[C@@]1(C(=O)N2CCC[C@@H](NC(=O)c3ccccc3)C2)CCNC1=O

>  <exports>  (74) 
nan

>  <CrystalformSites upload name>  (74) 
nan

>  <name>  (74) 
ACBGICSPNLHHML-RDTXWAMCSA-N

>  <HIPPO ID>  (74) 
34323

$$$$
ZGAPODHVEGIIKR-UHFFFAOYSA-N
     RDKit          3D

 24 26  0  0  0  0  0  0  0  0999 V2000
    8.5144   14.7685   21.8601 O   0  0  0  0  0  0  0  0  0  0  0  0
    9.6114   14.3966   22.2382 C   0  0  0  0  0  0  0  0  0  0  0  0
   10.7708   15.1339   22.0080 N   0  0  0  0  0  0  0  0  0  0  0  0
   11.8309   14.6277   22.8247 C   0  0  0  0  0  0  0  0  0  0  0  0
   11.3856   13.1946   23.1013 C   0  0  0  0  0  0  0  0  0  0  0  0
    9.9520   13.2537   22.9870 N   0  0  0  0  0  0  0  0  0  0  0  0
    9.0531   12.3737   23.6416 C   0  0  0  0  0  0  0  0  0  0  0  0
    7.8964   12.9015   24.1997 C   0  0  0  0  0  0  0  0  0  0  0  0
    7.0618   12.1273   25.0115 C   0  0  0  0  0  0  0  0  0  0  0  0
    7.2933   10.7729   25.2358 C   0  0  0  0  0  0  0  0  0  0  0  0
    6.5464   10.0113   26.1136 N   0  0  0  0  0  0  0  0  0  0  0  0
    5.4597   10.5155   26.9350 C   0  0  0  0  0  0  0  0  0  0  0  0
    5.9876   10.9034   28.2976 C   0  0  0  0  0  0  0  0  0  0  0  0
    6.0798    9.9404   29.3114 C   0  0  0  0  0  0  0  0  0  0  0  0
    6.6904   10.2466   30.5289 C   0  0  0  0  0  0  0  0  0  0  0  0
    7.2150   11.5265   30.7595 C   0  0  0  0  0  0  0  0  0  0  0  0
    7.9797   11.8230   32.0246 C   0  0  0  0  0  0  0  0  0  0  0  0
    7.5905   11.0553   33.0790 F   0  0  0  0  0  0  0  0  0  0  0  0
    9.3145   11.5929   31.8677 F   0  0  0  0  0  0  0  0  0  0  0  0
    7.8676   13.1153   32.4341 F   0  0  0  0  0  0  0  0  0  0  0  0
    7.0843   12.5034   29.7627 C   0  0  0  0  0  0  0  0  0  0  0  0
    6.4725   12.1952   28.5458 C   0  0  0  0  0  0  0  0  0  0  0  0
    8.4019   10.2181   24.5882 C   0  0  0  0  0  0  0  0  0  0  0  0
    9.2878   11.0092   23.8247 C   0  0  0  0  0  0  0  0  0  0  0  0
  1  2  2  0
  2  3  1  0
  3  4  1  0
  4  5  1  0
  5  6  1  0
  6  7  1  0
  7  8  2  0
  8  9  1  0
  9 10  2  0
 10 11  1  0
 11 12  1  0
 12 13  1  0
 13 14  2  0
 14 15  1  0
 15 16  2  0
 16 17  1  0
 17 18  1  0
 17 19  1  0
 17 20  1  0
 16 21  1  0
 21 22  2  0
 10 23  1  0
 23 24  2  0
  6  2  1  0
 24  7  1  0
 22 13  1  0
M  END
>  <Crystalforms alias>  (75) 
nan

>  <original ID>  (75) 
ZGAPODHVEGIIKR-UHFFFAOYSA-N

>  <alias>  (75) 
None

>  <distance_score>  (75) 
1.55202

>  <CanonSites upload name>  (75) 
nan

>  <CanonSites alias>  (75) 
nan

>  <ConformerSites alias>  (75) 
nan

>  <observation_longname>  (75) 
nan

>  <CrystalformSites alias>  (75) 
nan

>  <tags>  (75) 
['Syndirella scaffold']

>  <ref_mols>  (75) 
A0528a,A0365a

>  <ref_pdb>  (75) 
A0310a

>  <Quatassemblies upload name>  (75) 
nan

>  <inchikey>  (75) 
ZGAPODHVEGIIKR-UHFFFAOYSA-N

>  <Experiment code>  (75) 
nan

>  <Quatassemblies alias>  (75) 
nan

>  <Crystalforms upload name>  (75) 
nan

>  <Centroid res>  (75) 
nan

>  <ConformerSites upload name>  (75) 
nan

>  <energy_score>  (75) 
-29.860901

>  <original SMILES>  (75) 
O=C1NCCN1c1ccc(NCc2ccc(C(F)(F)F)cc2)cc1

>  <exports>  (75) 
nan

>  <CrystalformSites upload name>  (75) 
nan

>  <name>  (75) 
ZGAPODHVEGIIKR-UHFFFAOYSA-N

>  <HIPPO ID>  (75) 
35592

$$$$
BIBPQMJLXZHALI-UHFFFAOYSA-N
     RDKit          3D

 25 27  0  0  0  0  0  0  0  0999 V2000
   12.8171   15.1175   22.9009 O   0  0  0  0  0  0  0  0  0  0  0  0
   11.7437   14.5754   22.6942 C   0  0  0  0  0  0  0  0  0  0  0  0
   11.3321   13.1986   23.1759 C   0  0  0  0  0  0  0  0  0  0  0  0
    9.9148   13.2149   22.9223 N   0  0  0  0  0  0  0  0  0  0  0  0
    9.0173   12.3554   23.6113 C   0  0  0  0  0  0  0  0  0  0  0  0
    7.8727   12.8922   24.1844 C   0  0  0  0  0  0  0  0  0  0  0  0
    7.0506   12.1241   25.0149 C   0  0  0  0  0  0  0  0  0  0  0  0
    7.2828   10.7699   25.2437 C   0  0  0  0  0  0  0  0  0  0  0  0
    6.5405   10.0123   26.1274 N   0  0  0  0  0  0  0  0  0  0  0  0
    5.4546   10.5137   26.9494 C   0  0  0  0  0  0  0  0  0  0  0  0
    5.9843   10.9028   28.3106 C   0  0  0  0  0  0  0  0  0  0  0  0
    6.0756    9.9410   29.3254 C   0  0  0  0  0  0  0  0  0  0  0  0
    6.6792   10.2502   30.5454 C   0  0  0  0  0  0  0  0  0  0  0  0
    7.2102   11.5280   30.7722 C   0  0  0  0  0  0  0  0  0  0  0  0
    7.9150   11.8479   32.0661 C   0  0  0  0  0  0  0  0  0  0  0  0
    7.0925   12.4161   32.9860 F   0  0  0  0  0  0  0  0  0  0  0  0
    8.9558   12.7115   31.8981 F   0  0  0  0  0  0  0  0  0  0  0  0
    8.4490   10.7447   32.6625 F   0  0  0  0  0  0  0  0  0  0  0  0
    7.0709   12.5068   29.7783 C   0  0  0  0  0  0  0  0  0  0  0  0
    6.4654   12.1959   28.5590 C   0  0  0  0  0  0  0  0  0  0  0  0
    8.3841   10.2092   24.5900 C   0  0  0  0  0  0  0  0  0  0  0  0
    9.2576   10.9924   23.8069 C   0  0  0  0  0  0  0  0  0  0  0  0
    9.5831   14.3739   22.2109 C   0  0  0  0  0  0  0  0  0  0  0  0
    8.4792   14.7530   21.8567 O   0  0  0  0  0  0  0  0  0  0  0  0
   10.7088   15.1053   22.0046 N   0  0  0  0  0  0  0  0  0  0  0  0
  1  2  2  0
  2  3  1  0
  3  4  1  0
  4  5  1  0
  5  6  2  0
  6  7  1  0
  7  8  2  0
  8  9  1  0
  9 10  1  0
 10 11  1  0
 11 12  2  0
 12 13  1  0
 13 14  2  0
 14 15  1  0
 15 16  1  0
 15 17  1  0
 15 18  1  0
 14 19  1  0
 19 20  2  0
  8 21  1  0
 21 22  2  0
  4 23  1  0
 23 24  2  0
 23 25  1  0
 25  2  1  0
 22  5  1  0
 20 11  1  0
M  END
>  <Crystalforms alias>  (76) 
nan

>  <original ID>  (76) 
BIBPQMJLXZHALI-UHFFFAOYSA-N

>  <alias>  (76) 
None

>  <distance_score>  (76) 
1.566733

>  <CanonSites upload name>  (76) 
nan

>  <CanonSites alias>  (76) 
nan

>  <ConformerSites alias>  (76) 
nan

>  <observation_longname>  (76) 
nan

>  <CrystalformSites alias>  (76) 
nan

>  <tags>  (76) 
[]

>  <ref_mols>  (76) 
A0528a,A0365a

>  <ref_pdb>  (76) 
A0310a

>  <Quatassemblies upload name>  (76) 
nan

>  <inchikey>  (76) 
BIBPQMJLXZHALI-UHFFFAOYSA-N

>  <Experiment code>  (76) 
nan

>  <Quatassemblies alias>  (76) 
nan

>  <Crystalforms upload name>  (76) 
nan

>  <Centroid res>  (76) 
nan

>  <ConformerSites upload name>  (76) 
nan

>  <energy_score>  (76) 
-52.89239

>  <original SMILES>  (76) 
O=C1CN(c2ccc(NCc3ccc(C(F)(F)F)cc3)cc2)C(=O)N1

>  <exports>  (76) 
nan

>  <CrystalformSites upload name>  (76) 
nan

>  <name>  (76) 
BIBPQMJLXZHALI-UHFFFAOYSA-N

>  <HIPPO ID>  (76) 
35600

$$$$
BIQXAXGAFRQKFK-UHFFFAOYSA-N
     RDKit          3D

 25 27  0  0  0  0  0  0  0  0999 V2000
    8.5381   14.7744   21.8377 O   0  0  0  0  0  0  0  0  0  0  0  0
    9.6318   14.3990   22.2224 C   0  0  0  0  0  0  0  0  0  0  0  0
   10.7916   15.1426   22.0109 N   0  0  0  0  0  0  0  0  0  0  0  0
   11.8410   14.6355   22.8410 C   0  0  0  0  0  0  0  0  0  0  0  0
   11.4010   13.1971   23.0964 C   0  0  0  0  0  0  0  0  0  0  0  0
    9.9689   13.2494   22.9632 N   0  0  0  0  0  0  0  0  0  0  0  0
    9.0679   12.3715   23.6182 C   0  0  0  0  0  0  0  0  0  0  0  0
    7.9119   12.9035   24.1705 C   0  0  0  0  0  0  0  0  0  0  0  0
    7.0780   12.1355   24.9875 C   0  0  0  0  0  0  0  0  0  0  0  0
    7.3075   10.7831   25.2259 C   0  0  0  0  0  0  0  0  0  0  0  0
    6.5635   10.0335   26.1200 N   0  0  0  0  0  0  0  0  0  0  0  0
    5.4818   10.5677   26.9310 C   0  0  0  0  0  0  0  0  0  0  0  0
    6.0000   10.9317   28.2984 C   0  0  0  0  0  0  0  0  0  0  0  0
    6.1033    9.9487   29.2938 C   0  0  0  0  0  0  0  0  0  0  0  0
    6.7044   10.2384   30.5219 C   0  0  0  0  0  0  0  0  0  0  0  0
    7.2146   11.5191   30.7800 C   0  0  0  0  0  0  0  0  0  0  0  0
    7.9426   11.8295   32.0622 C   0  0  0  0  0  0  0  0  0  0  0  0
    7.3595   12.8326   32.7695 F   0  0  0  0  0  0  0  0  0  0  0  0
    9.2277   12.2206   31.8350 F   0  0  0  0  0  0  0  0  0  0  0  0
    8.0239   10.7647   32.9067 F   0  0  0  0  0  0  0  0  0  0  0  0
    7.0669   12.5143   29.8049 C   0  0  0  0  0  0  0  0  0  0  0  0
    6.4654   12.2173   28.5846 C   0  0  0  0  0  0  0  0  0  0  0  0
    6.3685   13.1982   27.6788 F   0  0  0  0  0  0  0  0  0  0  0  0
    8.4139   10.2216   24.5811 C   0  0  0  0  0  0  0  0  0  0  0  0
    9.3003   11.0074   23.8110 C   0  0  0  0  0  0  0  0  0  0  0  0
  1  2  2  0
  2  3  1  0
  3  4  1  0
  4  5  1  0
  5  6  1  0
  6  7  1  0
  7  8  2  0
  8  9  1  0
  9 10  2  0
 10 11  1  0
 11 12  1  0
 12 13  1  0
 13 14  2  0
 14 15  1  0
 15 16  2  0
 16 17  1  0
 17 18  1  0
 17 19  1  0
 17 20  1  0
 16 21  1  0
 21 22  2  0
 22 23  1  0
 10 24  1  0
 24 25  2  0
  6  2  1  0
 25  7  1  0
 22 13  1  0
M  END
>  <Crystalforms alias>  (77) 
nan

>  <original ID>  (77) 
BIQXAXGAFRQKFK-UHFFFAOYSA-N

>  <alias>  (77) 
None

>  <distance_score>  (77) 
1.510652

>  <CanonSites upload name>  (77) 
nan

>  <CanonSites alias>  (77) 
nan

>  <ConformerSites alias>  (77) 
nan

>  <observation_longname>  (77) 
nan

>  <CrystalformSites alias>  (77) 
nan

>  <tags>  (77) 
[]

>  <ref_mols>  (77) 
A0528a,A0365a

>  <ref_pdb>  (77) 
A0310a

>  <Quatassemblies upload name>  (77) 
nan

>  <inchikey>  (77) 
BIQXAXGAFRQKFK-UHFFFAOYSA-N

>  <Experiment code>  (77) 
nan

>  <Quatassemblies alias>  (77) 
nan

>  <Crystalforms upload name>  (77) 
nan

>  <Centroid res>  (77) 
nan

>  <ConformerSites upload name>  (77) 
nan

>  <energy_score>  (77) 
-59.635028

>  <original SMILES>  (77) 
O=C1NCCN1c1ccc(NCc2ccc(C(F)(F)F)cc2F)cc1

>  <exports>  (77) 
nan

>  <CrystalformSites upload name>  (77) 
nan

>  <name>  (77) 
BIQXAXGAFRQKFK-UHFFFAOYSA-N

>  <HIPPO ID>  (77) 
35614

$$$$
OLTFWVMUPXNTQQ-UHFFFAOYSA-N
     RDKit          3D

 26 28  0  0  0  0  0  0  0  0999 V2000
   12.7668   15.2182   22.8108 O   0  0  0  0  0  0  0  0  0  0  0  0
   11.7660   14.6060   22.5091 C   0  0  0  0  0  0  0  0  0  0  0  0
   10.7526   15.0036   21.7229 N   0  0  0  0  0  0  0  0  0  0  0  0
    9.6398   14.2990   22.0677 C   0  0  0  0  0  0  0  0  0  0  0  0
    8.5252   14.7284   21.8032 O   0  0  0  0  0  0  0  0  0  0  0  0
    9.9662   13.1788   22.8038 N   0  0  0  0  0  0  0  0  0  0  0  0
    9.0616   12.3441   23.5298 C   0  0  0  0  0  0  0  0  0  0  0  0
    7.9280   12.8970   24.1161 C   0  0  0  0  0  0  0  0  0  0  0  0
    7.1042   12.1421   24.9615 C   0  0  0  0  0  0  0  0  0  0  0  0
    7.3226   10.7866   25.1993 C   0  0  0  0  0  0  0  0  0  0  0  0
    6.5719   10.0392   26.0843 N   0  0  0  0  0  0  0  0  0  0  0  0
    5.4851   10.5443   26.9028 C   0  0  0  0  0  0  0  0  0  0  0  0
    6.0038   10.9225   28.2711 C   0  0  0  0  0  0  0  0  0  0  0  0
    6.0780    9.9563   29.2836 C   0  0  0  0  0  0  0  0  0  0  0  0
    6.6695   10.2579   30.5118 C   0  0  0  0  0  0  0  0  0  0  0  0
    7.2057   11.5317   30.7494 C   0  0  0  0  0  0  0  0  0  0  0  0
    7.8986   11.8411   32.0526 C   0  0  0  0  0  0  0  0  0  0  0  0
    7.0570   12.3639   32.9826 F   0  0  0  0  0  0  0  0  0  0  0  0
    8.9155   12.7368   31.9109 F   0  0  0  0  0  0  0  0  0  0  0  0
    8.4595   10.7385   32.6251 F   0  0  0  0  0  0  0  0  0  0  0  0
    7.0831   12.5147   29.7575 C   0  0  0  0  0  0  0  0  0  0  0  0
    6.4897   12.2118   28.5299 C   0  0  0  0  0  0  0  0  0  0  0  0
    8.4164   10.2120   24.5451 C   0  0  0  0  0  0  0  0  0  0  0  0
    9.2894   10.9795   23.7442 C   0  0  0  0  0  0  0  0  0  0  0  0
   11.2714   13.3150   23.1739 C   0  0  0  0  0  0  0  0  0  0  0  0
   11.9196   12.7225   24.0102 O   0  0  0  0  0  0  0  0  0  0  0  0
  1  2  2  0
  2  3  1  0
  3  4  1  0
  4  5  2  0
  4  6  1  0
  6  7  1  0
  7  8  2  0
  8  9  1  0
  9 10  2  0
 10 11  1  0
 11 12  1  0
 12 13  1  0
 13 14  2  0
 14 15  1  0
 15 16  2  0
 16 17  1  0
 17 18  1  0
 17 19  1  0
 17 20  1  0
 16 21  1  0
 21 22  2  0
 10 23  1  0
 23 24  2  0
  6 25  1  0
 25 26  2  0
 25  2  1  0
 24  7  1  0
 22 13  1  0
M  END
>  <Crystalforms alias>  (78) 
nan

>  <original ID>  (78) 
OLTFWVMUPXNTQQ-UHFFFAOYSA-N

>  <alias>  (78) 
None

>  <distance_score>  (78) 
1.580894

>  <CanonSites upload name>  (78) 
nan

>  <CanonSites alias>  (78) 
nan

>  <ConformerSites alias>  (78) 
nan

>  <observation_longname>  (78) 
nan

>  <CrystalformSites alias>  (78) 
nan

>  <tags>  (78) 
[]

>  <ref_mols>  (78) 
A0528a,A0365a

>  <ref_pdb>  (78) 
A0310a

>  <Quatassemblies upload name>  (78) 
nan

>  <inchikey>  (78) 
OLTFWVMUPXNTQQ-UHFFFAOYSA-N

>  <Experiment code>  (78) 
nan

>  <Quatassemblies alias>  (78) 
nan

>  <Crystalforms upload name>  (78) 
nan

>  <Centroid res>  (78) 
nan

>  <ConformerSites upload name>  (78) 
nan

>  <energy_score>  (78) 
-36.449615

>  <original SMILES>  (78) 
O=C1NC(=O)N(c2ccc(NCc3ccc(C(F)(F)F)cc3)cc2)C1=O

>  <exports>  (78) 
nan

>  <CrystalformSites upload name>  (78) 
nan

>  <name>  (78) 
OLTFWVMUPXNTQQ-UHFFFAOYSA-N

>  <HIPPO ID>  (78) 
35895

$$$$
DSZJQBYPSACCJV-UHFFFAOYSA-N
     RDKit          3D

 26 28  0  0  0  0  0  0  0  0999 V2000
   12.8234   15.1246   22.9058 O   0  0  0  0  0  0  0  0  0  0  0  0
   11.7523   14.5806   22.6922 C   0  0  0  0  0  0  0  0  0  0  0  0
   11.3421   13.2013   23.1670 C   0  0  0  0  0  0  0  0  0  0  0  0
    9.9267   13.2133   22.9045 N   0  0  0  0  0  0  0  0  0  0  0  0
    9.0279   12.3549   23.5934 C   0  0  0  0  0  0  0  0  0  0  0  0
    7.8854   12.8959   24.1633 C   0  0  0  0  0  0  0  0  0  0  0  0
    7.0637   12.1334   24.9978 C   0  0  0  0  0  0  0  0  0  0  0  0
    7.2922   10.7809   25.2381 C   0  0  0  0  0  0  0  0  0  0  0  0
    6.5555   10.0347   26.1409 N   0  0  0  0  0  0  0  0  0  0  0  0
    5.4737   10.5701   26.9513 C   0  0  0  0  0  0  0  0  0  0  0  0
    5.9969   10.9366   28.3161 C   0  0  0  0  0  0  0  0  0  0  0  0
    6.1041    9.9544   29.3117 C   0  0  0  0  0  0  0  0  0  0  0  0
    6.7175   10.2435   30.5332 C   0  0  0  0  0  0  0  0  0  0  0  0
    7.2304   11.5244   30.7872 C   0  0  0  0  0  0  0  0  0  0  0  0
    7.9988   11.8051   32.0524 C   0  0  0  0  0  0  0  0  0  0  0  0
    9.3213   11.5101   31.9074 F   0  0  0  0  0  0  0  0  0  0  0  0
    7.9439   13.1071   32.4400 F   0  0  0  0  0  0  0  0  0  0  0  0
    7.5645   11.0724   33.1129 F   0  0  0  0  0  0  0  0  0  0  0  0
    7.0831   12.5176   29.8108 C   0  0  0  0  0  0  0  0  0  0  0  0
    6.4697   12.2210   28.5965 C   0  0  0  0  0  0  0  0  0  0  0  0
    6.3746   13.1994   27.6877 F   0  0  0  0  0  0  0  0  0  0  0  0
    8.3902   10.2136   24.5848 C   0  0  0  0  0  0  0  0  0  0  0  0
    9.2644   10.9917   23.7954 C   0  0  0  0  0  0  0  0  0  0  0  0
    9.5951   14.3755   22.1972 C   0  0  0  0  0  0  0  0  0  0  0  0
    8.4924   14.7558   21.8402 O   0  0  0  0  0  0  0  0  0  0  0  0
   10.7199   15.1104   21.9991 N   0  0  0  0  0  0  0  0  0  0  0  0
  1  2  2  0
  2  3  1  0
  3  4  1  0
  4  5  1  0
  5  6  2  0
  6  7  1  0
  7  8  2  0
  8  9  1  0
  9 10  1  0
 10 11  1  0
 11 12  2  0
 12 13  1  0
 13 14  2  0
 14 15  1  0
 15 16  1  0
 15 17  1  0
 15 18  1  0
 14 19  1  0
 19 20  2  0
 20 21  1  0
  8 22  1  0
 22 23  2  0
  4 24  1  0
 24 25  2  0
 24 26  1  0
 26  2  1  0
 23  5  1  0
 20 11  1  0
M  END
>  <Crystalforms alias>  (79) 
nan

>  <original ID>  (79) 
DSZJQBYPSACCJV-UHFFFAOYSA-N

>  <alias>  (79) 
None

>  <distance_score>  (79) 
1.563145

>  <CanonSites upload name>  (79) 
nan

>  <CanonSites alias>  (79) 
nan

>  <ConformerSites alias>  (79) 
nan

>  <observation_longname>  (79) 
nan

>  <CrystalformSites alias>  (79) 
nan

>  <tags>  (79) 
[]

>  <ref_mols>  (79) 
A0528a,A0365a

>  <ref_pdb>  (79) 
A0310a

>  <Quatassemblies upload name>  (79) 
nan

>  <inchikey>  (79) 
DSZJQBYPSACCJV-UHFFFAOYSA-N

>  <Experiment code>  (79) 
nan

>  <Quatassemblies alias>  (79) 
nan

>  <Crystalforms upload name>  (79) 
nan

>  <Centroid res>  (79) 
nan

>  <ConformerSites upload name>  (79) 
nan

>  <energy_score>  (79) 
-49.594191

>  <original SMILES>  (79) 
O=C1CN(c2ccc(NCc3ccc(C(F)(F)F)cc3F)cc2)C(=O)N1

>  <exports>  (79) 
nan

>  <CrystalformSites upload name>  (79) 
nan

>  <name>  (79) 
DSZJQBYPSACCJV-UHFFFAOYSA-N

>  <HIPPO ID>  (79) 
35906

$$$$
AUSZHUBFLJVGAX-UHFFFAOYSA-N
     RDKit          3D

 27 29  0  0  0  0  0  0  0  0999 V2000
   12.7829   15.1968   22.7405 O   0  0  0  0  0  0  0  0  0  0  0  0
   11.7618   14.6020   22.4724 C   0  0  0  0  0  0  0  0  0  0  0  0
   10.7358   15.0090   21.7087 N   0  0  0  0  0  0  0  0  0  0  0  0
    9.6276   14.3005   22.0591 C   0  0  0  0  0  0  0  0  0  0  0  0
    8.5114   14.7295   21.8028 O   0  0  0  0  0  0  0  0  0  0  0  0
    9.9626   13.1788   22.7896 N   0  0  0  0  0  0  0  0  0  0  0  0
    9.0637   12.3414   23.5184 C   0  0  0  0  0  0  0  0  0  0  0  0
    7.9330   12.8952   24.1060 C   0  0  0  0  0  0  0  0  0  0  0  0
    7.1137   12.1428   24.9553 C   0  0  0  0  0  0  0  0  0  0  0  0
    7.3312   10.7886   25.1993 C   0  0  0  0  0  0  0  0  0  0  0  0
    6.5925   10.0504   26.1068 N   0  0  0  0  0  0  0  0  0  0  0  0
    5.5052   10.5862   26.9096 C   0  0  0  0  0  0  0  0  0  0  0  0
    6.0132   10.9468   28.2814 C   0  0  0  0  0  0  0  0  0  0  0  0
    6.1013    9.9639   29.2784 C   0  0  0  0  0  0  0  0  0  0  0  0
    6.6916   10.2521   30.5120 C   0  0  0  0  0  0  0  0  0  0  0  0
    7.2126   11.5286   30.7714 C   0  0  0  0  0  0  0  0  0  0  0  0
    7.9049   11.8313   32.0754 C   0  0  0  0  0  0  0  0  0  0  0  0
    8.4321   10.7204   32.6614 F   0  0  0  0  0  0  0  0  0  0  0  0
    7.0711   12.3865   32.9925 F   0  0  0  0  0  0  0  0  0  0  0  0
    8.9451   12.6977   31.9277 F   0  0  0  0  0  0  0  0  0  0  0  0
    7.0736   12.5255   29.7972 C   0  0  0  0  0  0  0  0  0  0  0  0
    6.4822   12.2303   28.5714 C   0  0  0  0  0  0  0  0  0  0  0  0
    6.3983   13.2105   27.6632 F   0  0  0  0  0  0  0  0  0  0  0  0
    8.4213   10.2108   24.5419 C   0  0  0  0  0  0  0  0  0  0  0  0
    9.2916   10.9767   23.7350 C   0  0  0  0  0  0  0  0  0  0  0  0
   11.2711   13.3136   23.1458 C   0  0  0  0  0  0  0  0  0  0  0  0
   11.9316   12.7216   23.9731 O   0  0  0  0  0  0  0  0  0  0  0  0
  1  2  2  0
  2  3  1  0
  3  4  1  0
  4  5  2  0
  4  6  1  0
  6  7  1  0
  7  8  2  0
  8  9  1  0
  9 10  2  0
 10 11  1  0
 11 12  1  0
 12 13  1  0
 13 14  2  0
 14 15  1  0
 15 16  2  0
 16 17  1  0
 17 18  1  0
 17 19  1  0
 17 20  1  0
 16 21  1  0
 21 22  2  0
 22 23  1  0
 10 24  1  0
 24 25  2  0
  6 26  1  0
 26 27  2  0
 26  2  1  0
 25  7  1  0
 22 13  1  0
M  END
>  <Crystalforms alias>  (80) 
nan

>  <original ID>  (80) 
AUSZHUBFLJVGAX-UHFFFAOYSA-N

>  <alias>  (80) 
None

>  <distance_score>  (80) 
1.581316

>  <CanonSites upload name>  (80) 
nan

>  <CanonSites alias>  (80) 
nan

>  <ConformerSites alias>  (80) 
nan

>  <observation_longname>  (80) 
nan

>  <CrystalformSites alias>  (80) 
nan

>  <tags>  (80) 
[]

>  <ref_mols>  (80) 
A0528a,A0365a

>  <ref_pdb>  (80) 
A0310a

>  <Quatassemblies upload name>  (80) 
nan

>  <inchikey>  (80) 
AUSZHUBFLJVGAX-UHFFFAOYSA-N

>  <Experiment code>  (80) 
nan

>  <Quatassemblies alias>  (80) 
nan

>  <Crystalforms upload name>  (80) 
nan

>  <Centroid res>  (80) 
nan

>  <ConformerSites upload name>  (80) 
nan

>  <energy_score>  (80) 
-63.654768

>  <original SMILES>  (80) 
O=C1NC(=O)N(c2ccc(NCc3ccc(C(F)(F)F)cc3F)cc2)C1=O

>  <exports>  (80) 
nan

>  <CrystalformSites upload name>  (80) 
nan

>  <name>  (80) 
AUSZHUBFLJVGAX-UHFFFAOYSA-N

>  <HIPPO ID>  (80) 
36910

$$$$
JIJOMFDCBOAKLL-QGZVFWFLSA-N
     RDKit          3D

 30 32  0  0  0  0  0  0  0  0999 V2000
    4.0897    7.2583   25.4392 O   0  0  0  0  0  0  0  0  0  0  0  0
    4.5934    8.0933   26.2073 C   0  0  0  0  0  0  0  0  0  0  0  0
    4.2664    8.1051   27.6860 C   0  0  0  0  0  0  0  0  0  0  0  0
    3.7960    6.8150   28.0572 O   0  0  0  0  0  0  0  0  0  0  0  0
    5.5637    8.8384   25.6323 N   0  0  0  0  0  0  0  0  0  0  0  0
    6.5156    9.7693   25.9797 C   0  0  0  0  0  0  0  0  0  0  0  0
    7.6684    9.8812   25.1768 C   0  0  0  0  0  0  0  0  0  0  0  0
    8.5245   10.9137   25.2300 N   0  0  0  0  0  0  0  0  0  0  0  0
    8.1627   11.9140   26.0415 C   0  0  0  0  0  0  0  0  0  0  0  0
    7.0275   11.8731   26.8587 C   0  0  0  0  0  0  0  0  0  0  0  0
    6.5379   13.0607   27.6031 C   0  0  0  0  0  0  0  0  0  0  0  0
    6.6456   14.3064   26.7906 C   0  0  0  0  0  0  0  0  0  0  0  0
    7.6493   15.0109   26.9711 O   0  0  0  0  0  0  0  0  0  0  0  0
    5.6468   14.6552   25.9001 N   0  0  0  0  0  0  0  0  0  0  0  0
    5.8487   15.9295   25.3139 C   0  0  0  0  0  0  0  0  0  0  0  0
    6.6427   15.7457   24.0388 C   0  0  0  0  0  0  0  0  0  0  0  0
    6.0923   14.7956   23.1314 N   0  0  0  0  0  0  0  0  0  0  0  0
    6.8524   14.2457   22.1265 C   0  0  0  0  0  0  0  0  0  0  0  0
    6.4144   13.2567   21.5373 O   0  0  0  0  0  0  0  0  0  0  0  0
    8.2781   14.7374   21.8329 C   0  0  0  0  0  0  0  0  0  0  0  0
    8.3560   16.4068   21.2615 Cl  0  0  0  0  0  0  0  0  0  0  0  0
    4.7663   14.3207   23.5200 C   0  0  0  0  0  0  0  0  0  0  0  0
    4.7196   13.8477   25.0587 C   0  0  2  0  0  0  0  0  0  0  0  0
    3.3283   13.9839   25.6481 C   0  0  0  0  0  0  0  0  0  0  0  0
    2.4727   15.0765   25.4353 C   0  0  0  0  0  0  0  0  0  0  0  0
    1.2267   15.1287   26.0526 C   0  0  0  0  0  0  0  0  0  0  0  0
    0.8699   14.0825   26.8813 C   0  0  0  0  0  0  0  0  0  0  0  0
    1.6729   13.0281   27.1380 N   0  0  0  0  0  0  0  0  0  0  0  0
    2.8766   13.0172   26.5300 C   0  0  0  0  0  0  0  0  0  0  0  0
    6.2471   10.7293   26.9070 C   0  0  0  0  0  0  0  0  0  0  0  0
  1  2  2  0
  2  3  1  0
  3  4  1  0
  2  5  1  0
  5  6  1  0
  6  7  2  0
  7  8  1  0
  8  9  2  0
  9 10  1  0
 10 11  1  0
 11 12  1  0
 12 13  2  0
 12 14  1  0
 14 15  1  0
 15 16  1  0
 16 17  1  0
 17 18  1  0
 18 19  2  0
 18 20  1  0
 20 21  1  0
 17 22  1  0
 22 23  1  0
 23 24  1  1
 24 25  2  0
 25 26  1  0
 26 27  2  0
 27 28  1  0
 28 29  2  0
 10 30  2  0
 30  6  1  0
 23 14  1  0
 29 24  1  0
M  END
>  <Crystalforms alias>  (81) 
nan

>  <original ID>  (81) 
JIJOMFDCBOAKLL-QGZVFWFLSA-N

>  <alias>  (81) 
None

>  <distance_score>  (81) 
1.34527

>  <CanonSites upload name>  (81) 
nan

>  <CanonSites alias>  (81) 
nan

>  <ConformerSites alias>  (81) 
nan

>  <observation_longname>  (81) 
nan

>  <CrystalformSites alias>  (81) 
nan

>  <tags>  (81) 
[]

>  <ref_mols>  (81) 
A1346a

>  <ref_pdb>  (81) 
A1346a

>  <Quatassemblies upload name>  (81) 
nan

>  <inchikey>  (81) 
JIJOMFDCBOAKLL-QGZVFWFLSA-N

>  <Experiment code>  (81) 
nan

>  <Quatassemblies alias>  (81) 
nan

>  <Crystalforms upload name>  (81) 
nan

>  <Centroid res>  (81) 
nan

>  <ConformerSites upload name>  (81) 
nan

>  <energy_score>  (81) 
-16.772953

>  <original SMILES>  (81) 
O=C(CO)Nc1cncc(CC(=O)N2CCN(C(=O)CCl)C[C@@H]2c2cccnc2)c1

>  <exports>  (81) 
nan

>  <CrystalformSites upload name>  (81) 
nan

>  <name>  (81) 
JIJOMFDCBOAKLL-QGZVFWFLSA-N

>  <HIPPO ID>  (81) 
41081

$$$$
JIJOMFDCBOAKLL-KRWDZBQOSA-N
     RDKit          3D

 30 32  0  0  0  0  0  0  0  0999 V2000
    4.5434    9.2149   28.4941 O   0  0  0  0  0  0  0  0  0  0  0  0
    4.5411    8.6577   27.4020 C   0  0  0  0  0  0  0  0  0  0  0  0
    3.6786    7.3957   27.1281 C   0  0  0  0  0  0  0  0  0  0  0  0
    3.7815    6.8968   25.7899 O   0  0  0  0  0  0  0  0  0  0  0  0
    5.2814    9.0305   26.2896 N   0  0  0  0  0  0  0  0  0  0  0  0
    6.3282    9.9497   26.2567 C   0  0  0  0  0  0  0  0  0  0  0  0
    7.4065    9.8045   25.3765 C   0  0  0  0  0  0  0  0  0  0  0  0
    8.4488   10.6541   25.3071 N   0  0  0  0  0  0  0  0  0  0  0  0
    8.3943   11.7091   26.1327 C   0  0  0  0  0  0  0  0  0  0  0  0
    7.3497   11.9694   27.0187 C   0  0  0  0  0  0  0  0  0  0  0  0
    7.2235   13.2330   27.8274 C   0  0  0  0  0  0  0  0  0  0  0  0
    6.2879   14.2736   27.2019 C   0  0  0  0  0  0  0  0  0  0  0  0
    5.7153   15.1119   27.8864 O   0  0  0  0  0  0  0  0  0  0  0  0
    6.2684   14.2795   25.8154 N   0  0  0  0  0  0  0  0  0  0  0  0
    7.5743   14.6342   25.3402 C   0  0  0  0  0  0  0  0  0  0  0  0
    7.7942   14.2196   23.9216 C   0  0  0  0  0  0  0  0  0  0  0  0
    6.8533   14.8994   23.0663 N   0  0  0  0  0  0  0  0  0  0  0  0
    7.1062   14.5842   21.7434 C   0  0  0  0  0  0  0  0  0  0  0  0
    6.3610   13.7832   21.1842 O   0  0  0  0  0  0  0  0  0  0  0  0
    8.4196   15.0625   21.1315 C   0  0  0  0  0  0  0  0  0  0  0  0
    8.5612   16.8183   21.2394 Cl  0  0  0  0  0  0  0  0  0  0  0  0
    5.4407   14.7884   23.5196 C   0  0  0  0  0  0  0  0  0  0  0  0
    5.2419   15.0371   25.0492 C   0  0  1  0  0  0  0  0  0  0  0  0
    3.8126   14.8051   25.4736 C   0  0  0  0  0  0  0  0  0  0  0  0
    2.9311   15.8859   25.6105 C   0  0  0  0  0  0  0  0  0  0  0  0
    1.6242   15.6718   26.0371 C   0  0  0  0  0  0  0  0  0  0  0  0
    1.2341   14.3737   26.3153 C   0  0  0  0  0  0  0  0  0  0  0  0
    2.0437   13.3017   26.1756 N   0  0  0  0  0  0  0  0  0  0  0  0
    3.3111   13.5448   25.7589 C   0  0  0  0  0  0  0  0  0  0  0  0
    6.3147   11.0502   27.0842 C   0  0  0  0  0  0  0  0  0  0  0  0
  1  2  2  0
  2  3  1  0
  3  4  1  0
  2  5  1  0
  5  6  1  0
  6  7  2  0
  7  8  1  0
  8  9  2  0
  9 10  1  0
 10 11  1  0
 11 12  1  0
 12 13  2  0
 12 14  1  0
 14 15  1  0
 15 16  1  0
 16 17  1  0
 17 18  1  0
 18 19  2  0
 18 20  1  0
 20 21  1  0
 17 22  1  0
 22 23  1  0
 23 24  1  1
 24 25  2  0
 25 26  1  0
 26 27  2  0
 27 28  1  0
 28 29  2  0
 10 30  2  0
 30  6  1  0
 23 14  1  0
 29 24  1  0
M  END
>  <Crystalforms alias>  (82) 
nan

>  <original ID>  (82) 
JIJOMFDCBOAKLL-KRWDZBQOSA-N

>  <alias>  (82) 
None

>  <distance_score>  (82) 
1.320562

>  <CanonSites upload name>  (82) 
nan

>  <CanonSites alias>  (82) 
nan

>  <ConformerSites alias>  (82) 
nan

>  <observation_longname>  (82) 
nan

>  <CrystalformSites alias>  (82) 
nan

>  <tags>  (82) 
[]

>  <ref_mols>  (82) 
A1346a

>  <ref_pdb>  (82) 
A1346a

>  <Quatassemblies upload name>  (82) 
nan

>  <inchikey>  (82) 
JIJOMFDCBOAKLL-KRWDZBQOSA-N

>  <Experiment code>  (82) 
nan

>  <Quatassemblies alias>  (82) 
nan

>  <Crystalforms upload name>  (82) 
nan

>  <Centroid res>  (82) 
nan

>  <ConformerSites upload name>  (82) 
nan

>  <energy_score>  (82) 
-29.584025

>  <original SMILES>  (82) 
O=C(CO)Nc1cncc(CC(=O)N2CCN(C(=O)CCl)C[C@H]2c2cccnc2)c1

>  <exports>  (82) 
nan

>  <CrystalformSites upload name>  (82) 
nan

>  <name>  (82) 
JIJOMFDCBOAKLL-KRWDZBQOSA-N

>  <HIPPO ID>  (82) 
41082

$$$$
GLAVLZCLANXGGX-KRWDZBQOSA-N
     RDKit          3D

 30 32  0  0  0  0  0  0  0  0999 V2000
    8.4718    8.2722   22.5445 O   0  0  0  0  0  0  0  0  0  0  0  0
    9.3730    8.9743   22.9742 C   0  0  0  0  0  0  0  0  0  0  0  0
   10.6643    8.3305   23.3093 C   0  0  0  0  0  0  0  0  0  0  0  0
   11.4210    9.0195   24.2503 O   0  0  0  0  0  0  0  0  0  0  0  0
    9.2534   10.2905   23.3745 N   0  0  0  0  0  0  0  0  0  0  0  0
    8.4324   10.6023   24.4773 C   0  0  0  0  0  0  0  0  0  0  0  0
    7.6817    9.6258   25.1126 C   0  0  0  0  0  0  0  0  0  0  0  0
    6.8662    9.8064   26.1693 N   0  0  0  0  0  0  0  0  0  0  0  0
    6.8390   11.0394   26.6757 C   0  0  0  0  0  0  0  0  0  0  0  0
    7.5983   12.0913   26.1769 C   0  0  0  0  0  0  0  0  0  0  0  0
    7.5701   13.3884   26.9178 C   0  0  0  0  0  0  0  0  0  0  0  0
    6.7777   14.4858   26.2687 C   0  0  0  0  0  0  0  0  0  0  0  0
    7.3339   15.3524   25.6093 O   0  0  0  0  0  0  0  0  0  0  0  0
    5.4260   14.5238   26.5718 N   0  0  0  0  0  0  0  0  0  0  0  0
    4.9114   15.8561   26.9348 C   0  0  0  0  0  0  0  0  0  0  0  0
    3.8759   16.4151   25.9452 C   0  0  0  0  0  0  0  0  0  0  0  0
    2.7426   15.5190   25.7469 N   0  0  0  0  0  0  0  0  0  0  0  0
    1.5018   16.0703   25.4539 C   0  0  0  0  0  0  0  0  0  0  0  0
    1.3384   17.2884   25.3531 O   0  0  0  0  0  0  0  0  0  0  0  0
    0.3198   15.1409   25.2750 C   0  0  0  0  0  0  0  0  0  0  0  0
   -0.9232   15.5019   26.4837 Cl  0  0  0  0  0  0  0  0  0  0  0  0
    3.0601   14.0847   25.8409 C   0  0  2  0  0  0  0  0  0  0  0  0
    2.5341   13.4873   27.1380 C   0  0  0  0  0  0  0  0  0  0  0  0
    2.7377   12.1460   27.4440 C   0  0  0  0  0  0  0  0  0  0  0  0
    2.0481   11.5446   28.4920 C   0  0  0  0  0  0  0  0  0  0  0  0
    1.1873   12.3182   29.2435 C   0  0  0  0  0  0  0  0  0  0  0  0
    1.0404   13.6377   29.0573 N   0  0  0  0  0  0  0  0  0  0  0  0
    1.7310   14.1914   28.0359 C   0  0  0  0  0  0  0  0  0  0  0  0
    4.5746   13.8263   25.6078 C   0  0  0  0  0  0  0  0  0  0  0  0
    8.3939   11.8720   25.0367 C   0  0  0  0  0  0  0  0  0  0  0  0
  1  2  2  0
  2  3  1  0
  3  4  1  0
  2  5  1  0
  5  6  1  0
  6  7  2  0
  7  8  1  0
  8  9  2  0
  9 10  1  0
 10 11  1  0
 11 12  1  0
 12 13  2  0
 12 14  1  0
 14 15  1  0
 15 16  1  0
 16 17  1  0
 17 18  1  0
 18 19  2  0
 18 20  1  0
 20 21  1  0
 17 22  1  0
 22 23  1  1
 23 24  2  0
 24 25  1  0
 25 26  2  0
 26 27  1  0
 27 28  2  0
 22 29  1  0
 10 30  2  0
 30  6  1  0
 29 14  1  0
 28 23  1  0
M  END
>  <Crystalforms alias>  (83) 
nan

>  <original ID>  (83) 
GLAVLZCLANXGGX-KRWDZBQOSA-N

>  <alias>  (83) 
None

>  <distance_score>  (83) 
1.452724

>  <CanonSites upload name>  (83) 
nan

>  <CanonSites alias>  (83) 
nan

>  <ConformerSites alias>  (83) 
nan

>  <observation_longname>  (83) 
nan

>  <CrystalformSites alias>  (83) 
nan

>  <tags>  (83) 
[]

>  <ref_mols>  (83) 
A1346a

>  <ref_pdb>  (83) 
A1346a

>  <Quatassemblies upload name>  (83) 
nan

>  <inchikey>  (83) 
GLAVLZCLANXGGX-KRWDZBQOSA-N

>  <Experiment code>  (83) 
nan

>  <Quatassemblies alias>  (83) 
nan

>  <Crystalforms upload name>  (83) 
nan

>  <Centroid res>  (83) 
nan

>  <ConformerSites upload name>  (83) 
nan

>  <energy_score>  (83) 
-5.844929

>  <original SMILES>  (83) 
O=C(CO)Nc1cncc(CC(=O)N2CCN(C(=O)CCl)[C@H](c3cccnc3)C2)c1

>  <exports>  (83) 
nan

>  <CrystalformSites upload name>  (83) 
nan

>  <name>  (83) 
GLAVLZCLANXGGX-KRWDZBQOSA-N

>  <HIPPO ID>  (83) 
41197

$$$$
GLAVLZCLANXGGX-QGZVFWFLSA-N
     RDKit          3D

 30 32  0  0  0  0  0  0  0  0999 V2000
    4.6669    7.6368   25.1650 O   0  0  0  0  0  0  0  0  0  0  0  0
    4.5180    8.0344   26.3099 C   0  0  0  0  0  0  0  0  0  0  0  0
    3.6174    7.2638   27.2699 C   0  0  0  0  0  0  0  0  0  0  0  0
    4.1822    7.3456   28.5731 O   0  0  0  0  0  0  0  0  0  0  0  0
    5.1205    9.1317   26.9038 N   0  0  0  0  0  0  0  0  0  0  0  0
    6.1937    9.9353   26.4774 C   0  0  0  0  0  0  0  0  0  0  0  0
    7.1059    9.7221   25.4498 C   0  0  0  0  0  0  0  0  0  0  0  0
    8.0886   10.5831   25.0813 N   0  0  0  0  0  0  0  0  0  0  0  0
    8.1602   11.7409   25.7464 C   0  0  0  0  0  0  0  0  0  0  0  0
    7.3397   12.0254   26.8265 C   0  0  0  0  0  0  0  0  0  0  0  0
    7.3890   13.3280   27.5444 C   0  0  0  0  0  0  0  0  0  0  0  0
    6.9901   14.4939   26.6923 C   0  0  0  0  0  0  0  0  0  0  0  0
    7.7818   15.4315   26.6108 O   0  0  0  0  0  0  0  0  0  0  0  0
    5.7573   14.5112   26.0745 N   0  0  0  0  0  0  0  0  0  0  0  0
    5.4308   15.7354   25.3726 C   0  0  0  0  0  0  0  0  0  0  0  0
    4.0764   15.7411   24.6524 C   0  0  0  0  0  0  0  0  0  0  0  0
    2.9449   15.2500   25.4627 N   0  0  0  0  0  0  0  0  0  0  0  0
    1.7823   16.0310   25.4505 C   0  0  0  0  0  0  0  0  0  0  0  0
    1.7799   17.2580   25.4755 O   0  0  0  0  0  0  0  0  0  0  0  0
    0.5204   15.2161   25.2591 C   0  0  0  0  0  0  0  0  0  0  0  0
   -0.7439   15.7014   26.3872 Cl  0  0  0  0  0  0  0  0  0  0  0  0
    3.3696   14.7061   26.7597 C   0  0  1  0  0  0  0  0  0  0  0  0
    2.2870   14.0068   27.5343 C   0  0  0  0  0  0  0  0  0  0  0  0
    1.9285   12.6809   27.3159 C   0  0  0  0  0  0  0  0  0  0  0  0
    0.8596   12.1233   28.0029 C   0  0  0  0  0  0  0  0  0  0  0  0
    0.1787   12.9093   28.9090 C   0  0  0  0  0  0  0  0  0  0  0  0
    0.5243   14.1780   29.1893 N   0  0  0  0  0  0  0  0  0  0  0  0
    1.5566   14.7019   28.4936 C   0  0  0  0  0  0  0  0  0  0  0  0
    4.6007   13.7824   26.5645 C   0  0  0  0  0  0  0  0  0  0  0  0
    6.3868   11.0841   27.2140 C   0  0  0  0  0  0  0  0  0  0  0  0
  1  2  2  0
  2  3  1  0
  3  4  1  0
  2  5  1  0
  5  6  1  0
  6  7  2  0
  7  8  1  0
  8  9  2  0
  9 10  1  0
 10 11  1  0
 11 12  1  0
 12 13  2  0
 12 14  1  0
 14 15  1  0
 15 16  1  0
 16 17  1  0
 17 18  1  0
 18 19  2  0
 18 20  1  0
 20 21  1  0
 17 22  1  0
 22 23  1  6
 23 24  2  0
 24 25  1  0
 25 26  2  0
 26 27  1  0
 27 28  2  0
 22 29  1  0
 10 30  2  0
 30  6  1  0
 29 14  1  0
 28 23  1  0
M  END
>  <Crystalforms alias>  (84) 
nan

>  <original ID>  (84) 
GLAVLZCLANXGGX-QGZVFWFLSA-N

>  <alias>  (84) 
None

>  <distance_score>  (84) 
1.855439

>  <CanonSites upload name>  (84) 
nan

>  <CanonSites alias>  (84) 
nan

>  <ConformerSites alias>  (84) 
nan

>  <observation_longname>  (84) 
nan

>  <CrystalformSites alias>  (84) 
nan

>  <tags>  (84) 
[]

>  <ref_mols>  (84) 
A1346a

>  <ref_pdb>  (84) 
A1346a

>  <Quatassemblies upload name>  (84) 
nan

>  <inchikey>  (84) 
GLAVLZCLANXGGX-QGZVFWFLSA-N

>  <Experiment code>  (84) 
nan

>  <Quatassemblies alias>  (84) 
nan

>  <Crystalforms upload name>  (84) 
nan

>  <Centroid res>  (84) 
nan

>  <ConformerSites upload name>  (84) 
nan

>  <energy_score>  (84) 
-63.915923

>  <original SMILES>  (84) 
O=C(CO)Nc1cncc(CC(=O)N2CCN(C(=O)CCl)[C@@H](c3cccnc3)C2)c1

>  <exports>  (84) 
nan

>  <CrystalformSites upload name>  (84) 
nan

>  <name>  (84) 
GLAVLZCLANXGGX-QGZVFWFLSA-N

>  <HIPPO ID>  (84) 
41198

$$$$
KKHICEOOLIHEJQ-UHFFFAOYSA-N
     RDKit          3D

 21 23  0  0  0  0  0  0  0  0999 V2000
    8.5177   14.7731   21.8516 O   0  0  0  0  0  0  0  0  0  0  0  0
    9.6152   14.4015   22.2287 C   0  0  0  0  0  0  0  0  0  0  0  0
   10.7733   15.1419   22.0014 N   0  0  0  0  0  0  0  0  0  0  0  0
   11.8334   14.6358   22.8185 C   0  0  0  0  0  0  0  0  0  0  0  0
   11.3914   13.2009   23.0904 C   0  0  0  0  0  0  0  0  0  0  0  0
    9.9577   13.2570   22.9737 N   0  0  0  0  0  0  0  0  0  0  0  0
    9.0609   12.3744   23.6277 C   0  0  0  0  0  0  0  0  0  0  0  0
    7.9036   12.8994   24.1872 C   0  0  0  0  0  0  0  0  0  0  0  0
    7.0745   12.1240   25.0034 C   0  0  0  0  0  0  0  0  0  0  0  0
    7.3134   10.7714   25.2319 C   0  0  0  0  0  0  0  0  0  0  0  0
    6.5835   10.0112   26.1269 N   0  0  0  0  0  0  0  0  0  0  0  0
    5.4891   10.5129   26.9374 C   0  0  0  0  0  0  0  0  0  0  0  0
    5.9992   10.9122   28.3031 C   0  0  0  0  0  0  0  0  0  0  0  0
    6.0064    9.9810   29.3547 C   0  0  0  0  0  0  0  0  0  0  0  0
    6.5459   10.3133   30.6005 C   0  0  0  0  0  0  0  0  0  0  0  0
    7.0923   11.5786   30.8059 C   0  0  0  0  0  0  0  0  0  0  0  0
    7.0836   12.5041   29.7697 C   0  0  0  0  0  0  0  0  0  0  0  0
    7.6392   13.7084   29.9574 F   0  0  0  0  0  0  0  0  0  0  0  0
    6.5357   12.1883   28.5310 C   0  0  0  0  0  0  0  0  0  0  0  0
    8.4192   10.2181   24.5784 C   0  0  0  0  0  0  0  0  0  0  0  0
    9.2993   11.0107   23.8102 C   0  0  0  0  0  0  0  0  0  0  0  0
  1  2  2  0
  2  3  1  0
  3  4  1  0
  4  5  1  0
  5  6  1  0
  6  7  1  0
  7  8  2  0
  8  9  1  0
  9 10  2  0
 10 11  1  0
 11 12  1  0
 12 13  1  0
 13 14  2  0
 14 15  1  0
 15 16  2  0
 16 17  1  0
 17 18  1  0
 17 19  2  0
 10 20  1  0
 20 21  2  0
  6  2  1  0
 21  7  1  0
 19 13  1  0
M  END
>  <Crystalforms alias>  (85) 
nan

>  <original ID>  (85) 
KKHICEOOLIHEJQ-UHFFFAOYSA-N

>  <alias>  (85) 
None

>  <distance_score>  (85) 
1.516005

>  <CanonSites upload name>  (85) 
nan

>  <CanonSites alias>  (85) 
nan

>  <ConformerSites alias>  (85) 
nan

>  <observation_longname>  (85) 
nan

>  <CrystalformSites alias>  (85) 
nan

>  <tags>  (85) 
['Syndirella scaffold']

>  <ref_mols>  (85) 
A0528a,A0365a

>  <ref_pdb>  (85) 
A0310a

>  <Quatassemblies upload name>  (85) 
nan

>  <inchikey>  (85) 
KKHICEOOLIHEJQ-UHFFFAOYSA-N

>  <Experiment code>  (85) 
nan

>  <Quatassemblies alias>  (85) 
nan

>  <Crystalforms upload name>  (85) 
nan

>  <Centroid res>  (85) 
nan

>  <ConformerSites upload name>  (85) 
nan

>  <energy_score>  (85) 
-31.644276

>  <original SMILES>  (85) 
O=C1NCCN1c1ccc(NCc2cccc(F)c2)cc1

>  <exports>  (85) 
nan

>  <CrystalformSites upload name>  (85) 
nan

>  <name>  (85) 
KKHICEOOLIHEJQ-UHFFFAOYSA-N

>  <HIPPO ID>  (85) 
46157

$$$$
VDJJUFJIIBLDCR-UHFFFAOYSA-N
     RDKit          3D

 22 24  0  0  0  0  0  0  0  0999 V2000
   12.8208   15.1247   22.8958 O   0  0  0  0  0  0  0  0  0  0  0  0
   11.7455   14.5840   22.6955 C   0  0  0  0  0  0  0  0  0  0  0  0
   11.3336   13.2113   23.1879 C   0  0  0  0  0  0  0  0  0  0  0  0
    9.9192   13.2172   22.9179 N   0  0  0  0  0  0  0  0  0  0  0  0
    9.0211   12.3566   23.6049 C   0  0  0  0  0  0  0  0  0  0  0  0
    7.8751   12.8910   24.1767 C   0  0  0  0  0  0  0  0  0  0  0  0
    7.0568   12.1219   25.0101 C   0  0  0  0  0  0  0  0  0  0  0  0
    7.2954   10.7697   25.2441 C   0  0  0  0  0  0  0  0  0  0  0  0
    6.5699   10.0140   26.1450 N   0  0  0  0  0  0  0  0  0  0  0  0
    5.4781   10.5153   26.9585 C   0  0  0  0  0  0  0  0  0  0  0  0
    5.9957   10.9175   28.3203 C   0  0  0  0  0  0  0  0  0  0  0  0
    6.0130    9.9870   29.3723 C   0  0  0  0  0  0  0  0  0  0  0  0
    6.5612   10.3213   30.6137 C   0  0  0  0  0  0  0  0  0  0  0  0
    7.1067   11.5877   30.8140 C   0  0  0  0  0  0  0  0  0  0  0  0
    7.0884   12.5123   29.7771 C   0  0  0  0  0  0  0  0  0  0  0  0
    7.6443   13.7174   29.9587 F   0  0  0  0  0  0  0  0  0  0  0  0
    6.5314   12.1948   28.5430 C   0  0  0  0  0  0  0  0  0  0  0  0
    8.3949   10.2100   24.5864 C   0  0  0  0  0  0  0  0  0  0  0  0
    9.2641   10.9941   23.8002 C   0  0  0  0  0  0  0  0  0  0  0  0
    9.5862   14.3761   22.2066 C   0  0  0  0  0  0  0  0  0  0  0  0
    8.4826   14.7515   21.8483 O   0  0  0  0  0  0  0  0  0  0  0  0
   10.7107   15.1100   22.0029 N   0  0  0  0  0  0  0  0  0  0  0  0
  1  2  2  0
  2  3  1  0
  3  4  1  0
  4  5  1  0
  5  6  2  0
  6  7  1  0
  7  8  2  0
  8  9  1  0
  9 10  1  0
 10 11  1  0
 11 12  2  0
 12 13  1  0
 13 14  2  0
 14 15  1  0
 15 16  1  0
 15 17  2  0
  8 18  1  0
 18 19  2  0
  4 20  1  0
 20 21  2  0
 20 22  1  0
 22  2  1  0
 19  5  1  0
 17 11  1  0
M  END
>  <Crystalforms alias>  (86) 
nan

>  <original ID>  (86) 
VDJJUFJIIBLDCR-UHFFFAOYSA-N

>  <alias>  (86) 
None

>  <distance_score>  (86) 
1.566851

>  <CanonSites upload name>  (86) 
nan

>  <CanonSites alias>  (86) 
nan

>  <ConformerSites alias>  (86) 
nan

>  <observation_longname>  (86) 
nan

>  <CrystalformSites alias>  (86) 
nan

>  <tags>  (86) 
[]

>  <ref_mols>  (86) 
A0528a,A0365a

>  <ref_pdb>  (86) 
A0310a

>  <Quatassemblies upload name>  (86) 
nan

>  <inchikey>  (86) 
VDJJUFJIIBLDCR-UHFFFAOYSA-N

>  <Experiment code>  (86) 
nan

>  <Quatassemblies alias>  (86) 
nan

>  <Crystalforms upload name>  (86) 
nan

>  <Centroid res>  (86) 
nan

>  <ConformerSites upload name>  (86) 
nan

>  <energy_score>  (86) 
-29.631203

>  <original SMILES>  (86) 
O=C1CN(c2ccc(NCc3cccc(F)c3)cc2)C(=O)N1

>  <exports>  (86) 
nan

>  <CrystalformSites upload name>  (86) 
nan

>  <name>  (86) 
VDJJUFJIIBLDCR-UHFFFAOYSA-N

>  <HIPPO ID>  (86) 
46161

$$$$
ALKGKUYSQDYBNA-UHFFFAOYSA-N
     RDKit          3D

 22 24  0  0  0  0  0  0  0  0999 V2000
    8.6186   14.6900   21.8347 O   0  0  0  0  0  0  0  0  0  0  0  0
    9.6826   14.3270   22.3059 C   0  0  0  0  0  0  0  0  0  0  0  0
   10.8484   15.0833   22.1966 N   0  0  0  0  0  0  0  0  0  0  0  0
   11.9719   14.3012   22.6010 C   0  0  0  0  0  0  0  0  0  0  0  0
   11.3362   13.2800   23.5309 C   0  0  0  0  0  0  0  0  0  0  0  0
    9.9865   13.1487   23.0276 N   0  0  0  0  0  0  0  0  0  0  0  0
    9.0435   12.3179   23.6880 C   0  0  0  0  0  0  0  0  0  0  0  0
    7.9020   12.8798   24.2394 C   0  0  0  0  0  0  0  0  0  0  0  0
    7.0468   12.1225   25.0458 C   0  0  0  0  0  0  0  0  0  0  0  0
    7.2514   10.7627   25.2756 C   0  0  0  0  0  0  0  0  0  0  0  0
    6.4906   10.0171   26.1547 N   0  0  0  0  0  0  0  0  0  0  0  0
    5.4223   10.5405   26.9814 C   0  0  0  0  0  0  0  0  0  0  0  0
    5.9707   10.9292   28.3357 C   0  0  0  0  0  0  0  0  0  0  0  0
    6.0304    9.9797   29.3686 C   0  0  0  0  0  0  0  0  0  0  0  0
    6.6370   10.2908   30.5886 C   0  0  0  0  0  0  0  0  0  0  0  0
    7.1958   11.5535   30.7824 C   0  0  0  0  0  0  0  0  0  0  0  0
    8.0088   11.8978   32.2584 Cl  0  0  0  0  0  0  0  0  0  0  0  0
    7.1212   12.5076   29.7715 C   0  0  0  0  0  0  0  0  0  0  0  0
    7.6776   13.7178   29.9290 F   0  0  0  0  0  0  0  0  0  0  0  0
    6.5062   12.2071   28.5592 C   0  0  0  0  0  0  0  0  0  0  0  0
    8.3450   10.1791   24.6300 C   0  0  0  0  0  0  0  0  0  0  0  0
    9.2444   10.9467   23.8655 C   0  0  0  0  0  0  0  0  0  0  0  0
  1  2  2  0
  2  3  1  0
  3  4  1  0
  4  5  1  0
  5  6  1  0
  6  7  1  0
  7  8  2  0
  8  9  1  0
  9 10  2  0
 10 11  1  0
 11 12  1  0
 12 13  1  0
 13 14  2  0
 14 15  1  0
 15 16  2  0
 16 17  1  0
 16 18  1  0
 18 19  1  0
 18 20  2  0
 10 21  1  0
 21 22  2  0
  6  2  1  0
 22  7  1  0
 20 13  1  0
M  END
>  <Crystalforms alias>  (87) 
nan

>  <original ID>  (87) 
ALKGKUYSQDYBNA-UHFFFAOYSA-N

>  <alias>  (87) 
None

>  <distance_score>  (87) 
1.570767

>  <CanonSites upload name>  (87) 
nan

>  <CanonSites alias>  (87) 
nan

>  <ConformerSites alias>  (87) 
nan

>  <observation_longname>  (87) 
nan

>  <CrystalformSites alias>  (87) 
nan

>  <tags>  (87) 
[]

>  <ref_mols>  (87) 
A0528a,A0365a

>  <ref_pdb>  (87) 
A0310a

>  <Quatassemblies upload name>  (87) 
nan

>  <inchikey>  (87) 
ALKGKUYSQDYBNA-UHFFFAOYSA-N

>  <Experiment code>  (87) 
nan

>  <Quatassemblies alias>  (87) 
nan

>  <Crystalforms upload name>  (87) 
nan

>  <Centroid res>  (87) 
nan

>  <ConformerSites upload name>  (87) 
nan

>  <energy_score>  (87) 
-17.959722

>  <original SMILES>  (87) 
O=C1NCCN1c1ccc(NCc2ccc(Cl)c(F)c2)cc1

>  <exports>  (87) 
nan

>  <CrystalformSites upload name>  (87) 
nan

>  <name>  (87) 
ALKGKUYSQDYBNA-UHFFFAOYSA-N

>  <HIPPO ID>  (87) 
46185

$$$$
IYKYOMCMGDHSFN-UHFFFAOYSA-N
     RDKit          3D

 23 25  0  0  0  0  0  0  0  0999 V2000
   12.7688   15.2228   22.8084 O   0  0  0  0  0  0  0  0  0  0  0  0
   11.7674   14.6115   22.5070 C   0  0  0  0  0  0  0  0  0  0  0  0
   10.7530   15.0109   21.7228 N   0  0  0  0  0  0  0  0  0  0  0  0
    9.6413   14.3030   22.0640 C   0  0  0  0  0  0  0  0  0  0  0  0
    8.5263   14.7297   21.7974 O   0  0  0  0  0  0  0  0  0  0  0  0
    9.9692   13.1817   22.7976 N   0  0  0  0  0  0  0  0  0  0  0  0
    9.0657   12.3435   23.5206 C   0  0  0  0  0  0  0  0  0  0  0  0
    7.9304   12.8929   24.1065 C   0  0  0  0  0  0  0  0  0  0  0  0
    7.1113   12.1363   24.9546 C   0  0  0  0  0  0  0  0  0  0  0  0
    7.3370   10.7826   25.1964 C   0  0  0  0  0  0  0  0  0  0  0  0
    6.6033   10.0368   26.0984 N   0  0  0  0  0  0  0  0  0  0  0  0
    5.5076   10.5395   26.9051 C   0  0  0  0  0  0  0  0  0  0  0  0
    6.0097   10.9315   28.2751 C   0  0  0  0  0  0  0  0  0  0  0  0
    6.0113    9.9955   29.3226 C   0  0  0  0  0  0  0  0  0  0  0  0
    6.5426   10.3231   30.5733 C   0  0  0  0  0  0  0  0  0  0  0  0
    7.0861   11.5881   30.7876 C   0  0  0  0  0  0  0  0  0  0  0  0
    7.0833   12.5178   29.7551 C   0  0  0  0  0  0  0  0  0  0  0  0
    7.6353   13.7224   29.9511 F   0  0  0  0  0  0  0  0  0  0  0  0
    6.5441   12.2067   28.5114 C   0  0  0  0  0  0  0  0  0  0  0  0
    8.4296   10.2102   24.5384 C   0  0  0  0  0  0  0  0  0  0  0  0
    9.2976   10.9796   23.7345 C   0  0  0  0  0  0  0  0  0  0  0  0
   11.2744   13.3178   23.1678 C   0  0  0  0  0  0  0  0  0  0  0  0
   11.9242   12.7223   24.0006 O   0  0  0  0  0  0  0  0  0  0  0  0
  1  2  2  0
  2  3  1  0
  3  4  1  0
  4  5  2  0
  4  6  1  0
  6  7  1  0
  7  8  2  0
  8  9  1  0
  9 10  2  0
 10 11  1  0
 11 12  1  0
 12 13  1  0
 13 14  2  0
 14 15  1  0
 15 16  2  0
 16 17  1  0
 17 18  1  0
 17 19  2  0
 10 20  1  0
 20 21  2  0
  6 22  1  0
 22 23  2  0
 22  2  1  0
 21  7  1  0
 19 13  1  0
M  END
>  <Crystalforms alias>  (88) 
nan

>  <original ID>  (88) 
IYKYOMCMGDHSFN-UHFFFAOYSA-N

>  <alias>  (88) 
None

>  <distance_score>  (88) 
1.581173

>  <CanonSites upload name>  (88) 
nan

>  <CanonSites alias>  (88) 
nan

>  <ConformerSites alias>  (88) 
nan

>  <observation_longname>  (88) 
nan

>  <CrystalformSites alias>  (88) 
nan

>  <tags>  (88) 
[]

>  <ref_mols>  (88) 
A0528a,A0365a

>  <ref_pdb>  (88) 
A0310a

>  <Quatassemblies upload name>  (88) 
nan

>  <inchikey>  (88) 
IYKYOMCMGDHSFN-UHFFFAOYSA-N

>  <Experiment code>  (88) 
nan

>  <Quatassemblies alias>  (88) 
nan

>  <Crystalforms upload name>  (88) 
nan

>  <Centroid res>  (88) 
nan

>  <ConformerSites upload name>  (88) 
nan

>  <energy_score>  (88) 
-10.316135

>  <original SMILES>  (88) 
O=C1NC(=O)N(c2ccc(NCc3cccc(F)c3)cc2)C1=O

>  <exports>  (88) 
nan

>  <CrystalformSites upload name>  (88) 
nan

>  <name>  (88) 
IYKYOMCMGDHSFN-UHFFFAOYSA-N

>  <HIPPO ID>  (88) 
46211

$$$$
OXDWCBQGWNVQEZ-UHFFFAOYSA-N
     RDKit          3D

 23 25  0  0  0  0  0  0  0  0999 V2000
   12.8201   15.1160   22.8965 O   0  0  0  0  0  0  0  0  0  0  0  0
   11.7436   14.5769   22.6988 C   0  0  0  0  0  0  0  0  0  0  0  0
   11.3293   13.2043   23.1901 C   0  0  0  0  0  0  0  0  0  0  0  0
    9.9141   13.2152   22.9240 N   0  0  0  0  0  0  0  0  0  0  0  0
    9.0148   12.3558   23.6111 C   0  0  0  0  0  0  0  0  0  0  0  0
    7.8688   12.8921   24.1814 C   0  0  0  0  0  0  0  0  0  0  0  0
    7.0477   12.1247   25.0135 C   0  0  0  0  0  0  0  0  0  0  0  0
    7.2833   10.7721   25.2482 C   0  0  0  0  0  0  0  0  0  0  0  0
    6.5522   10.0168   26.1455 N   0  0  0  0  0  0  0  0  0  0  0  0
    5.4581   10.5194   26.9551 C   0  0  0  0  0  0  0  0  0  0  0  0
    5.9819   10.9189   28.3162 C   0  0  0  0  0  0  0  0  0  0  0  0
    6.0295    9.9757   29.3556 C   0  0  0  0  0  0  0  0  0  0  0  0
    6.6239   10.2935   30.5800 C   0  0  0  0  0  0  0  0  0  0  0  0
    7.1823   11.5565   30.7721 C   0  0  0  0  0  0  0  0  0  0  0  0
    7.9885   11.9060   32.2505 Cl  0  0  0  0  0  0  0  0  0  0  0  0
    7.1163   12.5056   29.7559 C   0  0  0  0  0  0  0  0  0  0  0  0
    7.6747   13.7154   29.9102 F   0  0  0  0  0  0  0  0  0  0  0  0
    6.5126   12.1989   28.5394 C   0  0  0  0  0  0  0  0  0  0  0  0
    8.3840   10.2108   24.5936 C   0  0  0  0  0  0  0  0  0  0  0  0
    9.2557   10.9932   23.8081 C   0  0  0  0  0  0  0  0  0  0  0  0
    9.5833   14.3740   22.2122 C   0  0  0  0  0  0  0  0  0  0  0  0
    8.4810   14.7517   21.8522 O   0  0  0  0  0  0  0  0  0  0  0  0
   10.7091   15.1060   22.0082 N   0  0  0  0  0  0  0  0  0  0  0  0
  1  2  2  0
  2  3  1  0
  3  4  1  0
  4  5  1  0
  5  6  2  0
  6  7  1  0
  7  8  2  0
  8  9  1  0
  9 10  1  0
 10 11  1  0
 11 12  2  0
 12 13  1  0
 13 14  2  0
 14 15  1  0
 14 16  1  0
 16 17  1  0
 16 18  2  0
  8 19  1  0
 19 20  2  0
  4 21  1  0
 21 22  2  0
 21 23  1  0
 23  2  1  0
 20  5  1  0
 18 11  1  0
M  END
>  <Crystalforms alias>  (89) 
nan

>  <original ID>  (89) 
OXDWCBQGWNVQEZ-UHFFFAOYSA-N

>  <alias>  (89) 
None

>  <distance_score>  (89) 
1.565543

>  <CanonSites upload name>  (89) 
nan

>  <CanonSites alias>  (89) 
nan

>  <ConformerSites alias>  (89) 
nan

>  <observation_longname>  (89) 
nan

>  <CrystalformSites alias>  (89) 
nan

>  <tags>  (89) 
[]

>  <ref_mols>  (89) 
A0528a,A0365a

>  <ref_pdb>  (89) 
A0310a

>  <Quatassemblies upload name>  (89) 
nan

>  <inchikey>  (89) 
OXDWCBQGWNVQEZ-UHFFFAOYSA-N

>  <Experiment code>  (89) 
nan

>  <Quatassemblies alias>  (89) 
nan

>  <Crystalforms upload name>  (89) 
nan

>  <Centroid res>  (89) 
nan

>  <ConformerSites upload name>  (89) 
nan

>  <energy_score>  (89) 
-29.48489

>  <original SMILES>  (89) 
O=C1CN(c2ccc(NCc3ccc(Cl)c(F)c3)cc2)C(=O)N1

>  <exports>  (89) 
nan

>  <CrystalformSites upload name>  (89) 
nan

>  <name>  (89) 
OXDWCBQGWNVQEZ-UHFFFAOYSA-N

>  <HIPPO ID>  (89) 
46385

$$$$
BAOICCBJXVWGBW-UHFFFAOYSA-N
     RDKit          3D

 24 26  0  0  0  0  0  0  0  0999 V2000
   12.7717   15.2023   22.7279 O   0  0  0  0  0  0  0  0  0  0  0  0
   11.7484   14.6074   22.4683 C   0  0  0  0  0  0  0  0  0  0  0  0
   10.7181   15.0135   21.7096 N   0  0  0  0  0  0  0  0  0  0  0  0
    9.6111   14.3066   22.0667 C   0  0  0  0  0  0  0  0  0  0  0  0
    8.4934   14.7323   21.8113 O   0  0  0  0  0  0  0  0  0  0  0  0
    9.9479   13.1887   22.8011 N   0  0  0  0  0  0  0  0  0  0  0  0
    9.0513   12.3494   23.5310 C   0  0  0  0  0  0  0  0  0  0  0  0
    7.9136   12.8960   24.1151 C   0  0  0  0  0  0  0  0  0  0  0  0
    7.0947   12.1386   24.9626 C   0  0  0  0  0  0  0  0  0  0  0  0
    7.3224   10.7858   25.2053 C   0  0  0  0  0  0  0  0  0  0  0  0
    6.5860   10.0382   26.1045 N   0  0  0  0  0  0  0  0  0  0  0  0
    5.4876   10.5406   26.9079 C   0  0  0  0  0  0  0  0  0  0  0  0
    5.9973   10.9317   28.2764 C   0  0  0  0  0  0  0  0  0  0  0  0
    6.0311    9.9842   29.3126 C   0  0  0  0  0  0  0  0  0  0  0  0
    6.6110   10.2964   30.5456 C   0  0  0  0  0  0  0  0  0  0  0  0
    7.1680   11.5582   30.7499 C   0  0  0  0  0  0  0  0  0  0  0  0
    7.9549   11.9013   32.2403 Cl  0  0  0  0  0  0  0  0  0  0  0  0
    7.1151   12.5114   29.7369 C   0  0  0  0  0  0  0  0  0  0  0  0
    7.6693   13.7215   29.9041 F   0  0  0  0  0  0  0  0  0  0  0  0
    6.5270   12.2099   28.5112 C   0  0  0  0  0  0  0  0  0  0  0  0
    8.4192   10.2162   24.5516 C   0  0  0  0  0  0  0  0  0  0  0  0
    9.2873   10.9870   23.7485 C   0  0  0  0  0  0  0  0  0  0  0  0
   11.2593   13.3216   23.1484 C   0  0  0  0  0  0  0  0  0  0  0  0
   11.9234   12.7307   23.9731 O   0  0  0  0  0  0  0  0  0  0  0  0
  1  2  2  0
  2  3  1  0
  3  4  1  0
  4  5  2  0
  4  6  1  0
  6  7  1  0
  7  8  2  0
  8  9  1  0
  9 10  2  0
 10 11  1  0
 11 12  1  0
 12 13  1  0
 13 14  2  0
 14 15  1  0
 15 16  2  0
 16 17  1  0
 16 18  1  0
 18 19  1  0
 18 20  2  0
 10 21  1  0
 21 22  2  0
  6 23  1  0
 23 24  2  0
 23  2  1  0
 22  7  1  0
 20 13  1  0
M  END
>  <Crystalforms alias>  (90) 
nan

>  <original ID>  (90) 
BAOICCBJXVWGBW-UHFFFAOYSA-N

>  <alias>  (90) 
None

>  <distance_score>  (90) 
1.585429

>  <CanonSites upload name>  (90) 
nan

>  <CanonSites alias>  (90) 
nan

>  <ConformerSites alias>  (90) 
nan

>  <observation_longname>  (90) 
nan

>  <CrystalformSites alias>  (90) 
nan

>  <tags>  (90) 
[]

>  <ref_mols>  (90) 
A0528a,A0365a

>  <ref_pdb>  (90) 
A0310a

>  <Quatassemblies upload name>  (90) 
nan

>  <inchikey>  (90) 
BAOICCBJXVWGBW-UHFFFAOYSA-N

>  <Experiment code>  (90) 
nan

>  <Quatassemblies alias>  (90) 
nan

>  <Crystalforms upload name>  (90) 
nan

>  <Centroid res>  (90) 
nan

>  <ConformerSites upload name>  (90) 
nan

>  <energy_score>  (90) 
-30.679145

>  <original SMILES>  (90) 
O=C1NC(=O)N(c2ccc(NCc3ccc(Cl)c(F)c3)cc2)C1=O

>  <exports>  (90) 
nan

>  <CrystalformSites upload name>  (90) 
nan

>  <name>  (90) 
BAOICCBJXVWGBW-UHFFFAOYSA-N

>  <HIPPO ID>  (90) 
47719

$$$$
AKBIFIUVGFTRED-UHFFFAOYSA-N
     RDKit          3D

 23 25  0  0  0  0  0  0  0  0999 V2000
    7.1101   14.6340   31.5784 C   0  0  0  0  0  0  0  0  0  0  0  0
    7.8467   14.1139   30.0073 S   0  0  0  0  0  0  0  0  0  0  0  0
    7.1304   12.4874   29.8410 C   0  0  0  0  0  0  0  0  0  0  0  0
    7.2455   11.5188   30.8399 C   0  0  0  0  0  0  0  0  0  0  0  0
    6.7144   10.2420   30.6469 C   0  0  0  0  0  0  0  0  0  0  0  0
    6.0860    9.9178   29.4441 C   0  0  0  0  0  0  0  0  0  0  0  0
    5.9764   10.8663   28.4205 C   0  0  0  0  0  0  0  0  0  0  0  0
    5.3456   10.4870   27.1005 C   0  0  0  0  0  0  0  0  0  0  0  0
    6.3108    9.9678   26.1626 N   0  0  0  0  0  0  0  0  0  0  0  0
    7.1762   10.7120   25.4058 C   0  0  0  0  0  0  0  0  0  0  0  0
    7.0154   12.0721   25.2312 C   0  0  0  0  0  0  0  0  0  0  0  0
    7.9262   12.8001   24.4793 C   0  0  0  0  0  0  0  0  0  0  0  0
    8.9909   12.1810   23.8398 C   0  0  0  0  0  0  0  0  0  0  0  0
    9.9287   12.9185   23.0825 N   0  0  0  0  0  0  0  0  0  0  0  0
   11.0787   13.3865   23.8859 C   0  0  0  0  0  0  0  0  0  0  0  0
   12.1198   14.0537   22.9763 C   0  0  0  0  0  0  0  0  0  0  0  0
   11.5850   15.1161   22.1589 N   0  0  0  0  0  0  0  0  0  0  0  0
   10.3607   14.9361   21.5591 C   0  0  0  0  0  0  0  0  0  0  0  0
   10.0570   15.5833   20.5579 O   0  0  0  0  0  0  0  0  0  0  0  0
    9.3493   14.0365   22.2767 C   0  0  0  0  0  0  0  0  0  0  0  0
    9.0519   10.7946   24.0247 C   0  0  0  0  0  0  0  0  0  0  0  0
    8.1851   10.0637   24.7966 N   0  0  0  0  0  0  0  0  0  0  0  0
    6.4921   12.1554   28.6409 C   0  0  0  0  0  0  0  0  0  0  0  0
  1  2  1  0
  2  3  1  0
  3  4  2  0
  4  5  1  0
  5  6  2  0
  6  7  1  0
  7  8  1  0
  8  9  1  0
  9 10  1  0
 10 11  2  0
 11 12  1  0
 12 13  2  0
 13 14  1  0
 14 15  1  0
 15 16  1  0
 16 17  1  0
 17 18  1  0
 18 19  2  0
 18 20  1  0
 13 21  1  0
 21 22  2  0
  7 23  2  0
 23  3  1  0
 22 10  1  0
 20 14  1  0
M  END
>  <Crystalforms alias>  (91) 
nan

>  <original ID>  (91) 
AKBIFIUVGFTRED-UHFFFAOYSA-N

>  <alias>  (91) 
None

>  <distance_score>  (91) 
1.465264

>  <CanonSites upload name>  (91) 
nan

>  <CanonSites alias>  (91) 
nan

>  <ConformerSites alias>  (91) 
nan

>  <observation_longname>  (91) 
nan

>  <CrystalformSites alias>  (91) 
nan

>  <tags>  (91) 
['Syndirella scaffold']

>  <ref_mols>  (91) 
A0528a,A0365a

>  <ref_pdb>  (91) 
A0310a

>  <Quatassemblies upload name>  (91) 
nan

>  <inchikey>  (91) 
AKBIFIUVGFTRED-UHFFFAOYSA-N

>  <Experiment code>  (91) 
nan

>  <Quatassemblies alias>  (91) 
nan

>  <Crystalforms upload name>  (91) 
nan

>  <Centroid res>  (91) 
nan

>  <ConformerSites upload name>  (91) 
nan

>  <energy_score>  (91) 
-42.799401

>  <original SMILES>  (91) 
CSc1cccc(CNc2ccc(N3CCNC(=O)C3)cn2)c1

>  <exports>  (91) 
nan

>  <CrystalformSites upload name>  (91) 
nan

>  <name>  (91) 
AKBIFIUVGFTRED-UHFFFAOYSA-N

>  <HIPPO ID>  (91) 
48855

$$$$
UXHPYTOICLLREQ-UHFFFAOYSA-N
     RDKit          3D

 24 26  0  0  0  0  0  0  0  0999 V2000
    9.3164   13.9273   30.9475 C   0  0  0  0  0  0  0  0  0  0  0  0
    7.8570   14.1436   29.8956 S   0  0  0  0  0  0  0  0  0  0  0  0
    7.1790   12.4911   29.8346 C   0  0  0  0  0  0  0  0  0  0  0  0
    7.2991   11.5605   30.8680 C   0  0  0  0  0  0  0  0  0  0  0  0
    6.7628   10.2773   30.7299 C   0  0  0  0  0  0  0  0  0  0  0  0
    6.1009    9.9128   29.5573 C   0  0  0  0  0  0  0  0  0  0  0  0
    5.9531   10.8303   28.5128 C   0  0  0  0  0  0  0  0  0  0  0  0
    5.2438   10.4263   27.2409 C   0  0  0  0  0  0  0  0  0  0  0  0
    6.1442    9.9181   26.2326 N   0  0  0  0  0  0  0  0  0  0  0  0
    6.9942   10.7034   25.4951 C   0  0  0  0  0  0  0  0  0  0  0  0
    6.7328   12.0402   25.2734 C   0  0  0  0  0  0  0  0  0  0  0  0
    7.6354   12.8206   24.5747 C   0  0  0  0  0  0  0  0  0  0  0  0
    8.8091   12.2867   24.0649 C   0  0  0  0  0  0  0  0  0  0  0  0
    9.7244   13.1733   23.5174 N   0  0  0  0  0  0  0  0  0  0  0  0
   11.1465   12.8976   23.4924 C   0  0  0  0  0  0  0  0  0  0  0  0
   11.8966   14.2265   23.4676 C   0  0  0  0  0  0  0  0  0  0  0  0
   11.5619   14.9683   22.2747 N   0  0  0  0  0  0  0  0  0  0  0  0
   12.5340   15.8612   21.7190 C   0  0  0  0  0  0  0  0  0  0  0  0
   10.2835   14.9486   21.7478 C   0  0  0  0  0  0  0  0  0  0  0  0
    9.9646   15.6298   20.7728 O   0  0  0  0  0  0  0  0  0  0  0  0
    9.2435   14.0460   22.4184 C   0  0  0  0  0  0  0  0  0  0  0  0
    8.9435   10.9087   24.2458 C   0  0  0  0  0  0  0  0  0  0  0  0
    8.0774   10.1184   24.9533 N   0  0  0  0  0  0  0  0  0  0  0  0
    6.4822   12.1231   28.6757 C   0  0  0  0  0  0  0  0  0  0  0  0
  1  2  1  0
  2  3  1  0
  3  4  2  0
  4  5  1  0
  5  6  2  0
  6  7  1  0
  7  8  1  0
  8  9  1  0
  9 10  1  0
 10 11  2  0
 11 12  1  0
 12 13  2  0
 13 14  1  0
 14 15  1  0
 15 16  1  0
 16 17  1  0
 17 18  1  0
 17 19  1  0
 19 20  2  0
 19 21  1  0
 13 22  1  0
 22 23  2  0
  7 24  2  0
 24  3  1  0
 23 10  1  0
 21 14  1  0
M  END
>  <Crystalforms alias>  (92) 
nan

>  <original ID>  (92) 
UXHPYTOICLLREQ-UHFFFAOYSA-N

>  <alias>  (92) 
None

>  <distance_score>  (92) 
1.506233

>  <CanonSites upload name>  (92) 
nan

>  <CanonSites alias>  (92) 
nan

>  <ConformerSites alias>  (92) 
nan

>  <observation_longname>  (92) 
nan

>  <CrystalformSites alias>  (92) 
nan

>  <tags>  (92) 
[]

>  <ref_mols>  (92) 
A0528a,A0365a

>  <ref_pdb>  (92) 
A0310a

>  <Quatassemblies upload name>  (92) 
nan

>  <inchikey>  (92) 
UXHPYTOICLLREQ-UHFFFAOYSA-N

>  <Experiment code>  (92) 
nan

>  <Quatassemblies alias>  (92) 
nan

>  <Crystalforms upload name>  (92) 
nan

>  <Centroid res>  (92) 
nan

>  <ConformerSites upload name>  (92) 
nan

>  <energy_score>  (92) 
-31.717192

>  <original SMILES>  (92) 
CSc1cccc(CNc2ccc(N3CCN(C)C(=O)C3)cn2)c1

>  <exports>  (92) 
nan

>  <CrystalformSites upload name>  (92) 
nan

>  <name>  (92) 
UXHPYTOICLLREQ-UHFFFAOYSA-N

>  <HIPPO ID>  (92) 
48908

$$$$
QVCJIISDXUHZMG-SFHVURJKSA-N
     RDKit          3D

 25 27  0  0  0  0  0  0  0  0999 V2000
    7.6698   16.1531   31.9061 C   0  0  0  0  0  0  0  0  0  0  0  0
    7.3317   14.6972   31.6392 C   0  0  0  0  0  0  0  0  0  0  0  0
    7.9124   14.2306   29.9769 S   0  0  0  0  0  0  0  0  0  0  0  0
    7.2296   12.5892   29.8328 C   0  0  0  0  0  0  0  0  0  0  0  0
    7.4146   11.6139   30.8151 C   0  0  0  0  0  0  0  0  0  0  0  0
    6.9177   10.3237   30.6296 C   0  0  0  0  0  0  0  0  0  0  0  0
    6.2493    9.9964   29.4507 C   0  0  0  0  0  0  0  0  0  0  0  0
    6.0525   10.9555   28.4445 C   0  0  0  0  0  0  0  0  0  0  0  0
    5.3349   10.6064   27.1535 C   0  0  2  0  0  0  0  0  0  0  0  0
    4.3344    9.6369   27.4272 O   0  0  0  0  0  0  0  0  0  0  0  0
    6.2064   10.0709   26.1478 N   0  0  0  0  0  0  0  0  0  0  0  0
    7.0808   10.8508   25.4216 C   0  0  0  0  0  0  0  0  0  0  0  0
    6.8379   12.1940   25.1963 C   0  0  0  0  0  0  0  0  0  0  0  0
    7.7621   12.9774   24.5194 C   0  0  0  0  0  0  0  0  0  0  0  0
    8.9453   12.4476   24.0260 C   0  0  0  0  0  0  0  0  0  0  0  0
    9.8674   13.3547   23.5032 N   0  0  0  0  0  0  0  0  0  0  0  0
   11.3046   13.1028   23.5254 C   0  0  0  0  0  0  0  0  0  0  0  0
   12.0324   14.4553   23.4232 C   0  0  0  0  0  0  0  0  0  0  0  0
   11.6775   15.1632   22.2168 N   0  0  0  0  0  0  0  0  0  0  0  0
   10.4300   15.0600   21.6611 C   0  0  0  0  0  0  0  0  0  0  0  0
   10.1420   15.7087   20.6552 O   0  0  0  0  0  0  0  0  0  0  0  0
    9.4221   14.0825   22.2824 C   0  0  0  0  0  0  0  0  0  0  0  0
    9.0582   11.0655   24.1931 C   0  0  0  0  0  0  0  0  0  0  0  0
    8.1698   10.2703   24.8842 N   0  0  0  0  0  0  0  0  0  0  0  0
    6.5477   12.2543   28.6570 C   0  0  0  0  0  0  0  0  0  0  0  0
  1  2  1  0
  2  3  1  0
  3  4  1  0
  4  5  2  0
  5  6  1  0
  6  7  2  0
  7  8  1  0
  8  9  1  0
  9 10  1  1
  9 11  1  0
 11 12  1  0
 12 13  2  0
 13 14  1  0
 14 15  2  0
 15 16  1  0
 16 17  1  0
 17 18  1  0
 18 19  1  0
 19 20  1  0
 20 21  2  0
 20 22  1  0
 15 23  1  0
 23 24  2  0
  8 25  2  0
 25  4  1  0
 24 12  1  0
 22 16  1  0
M  END
>  <Crystalforms alias>  (93) 
nan

>  <original ID>  (93) 
QVCJIISDXUHZMG-SFHVURJKSA-N

>  <alias>  (93) 
None

>  <distance_score>  (93) 
1.493043

>  <CanonSites upload name>  (93) 
nan

>  <CanonSites alias>  (93) 
nan

>  <ConformerSites alias>  (93) 
nan

>  <observation_longname>  (93) 
nan

>  <CrystalformSites alias>  (93) 
nan

>  <tags>  (93) 
[]

>  <ref_mols>  (93) 
A0528a,A0365a

>  <ref_pdb>  (93) 
A0310a

>  <Quatassemblies upload name>  (93) 
nan

>  <inchikey>  (93) 
QVCJIISDXUHZMG-SFHVURJKSA-N

>  <Experiment code>  (93) 
nan

>  <Quatassemblies alias>  (93) 
nan

>  <Crystalforms upload name>  (93) 
nan

>  <Centroid res>  (93) 
nan

>  <ConformerSites upload name>  (93) 
nan

>  <energy_score>  (93) 
-46.75385

>  <original SMILES>  (93) 
CCSc1cccc([C@H](O)Nc2ccc(N3CCNC(=O)C3)cn2)c1

>  <exports>  (93) 
nan

>  <CrystalformSites upload name>  (93) 
nan

>  <name>  (93) 
QVCJIISDXUHZMG-SFHVURJKSA-N

>  <HIPPO ID>  (93) 
49017

$$$$
QVCJIISDXUHZMG-GOSISDBHSA-N
     RDKit          3D

 25 27  0  0  0  0  0  0  0  0999 V2000
    9.9762   15.1567   29.0219 C   0  0  0  0  0  0  0  0  0  0  0  0
    8.5478   14.7035   28.7662 C   0  0  0  0  0  0  0  0  0  0  0  0
    7.7734   14.1593   30.3253 S   0  0  0  0  0  0  0  0  0  0  0  0
    7.1483   12.5385   29.9041 C   0  0  0  0  0  0  0  0  0  0  0  0
    7.2992   11.5123   30.8408 C   0  0  0  0  0  0  0  0  0  0  0  0
    6.8230   10.2287   30.5714 C   0  0  0  0  0  0  0  0  0  0  0  0
    6.2055    9.9546   29.3512 C   0  0  0  0  0  0  0  0  0  0  0  0
    6.0388   10.9620   28.3897 C   0  0  0  0  0  0  0  0  0  0  0  0
    5.3953   10.6182   27.0619 C   0  0  1  0  0  0  0  0  0  0  0  0
    4.6746   11.7162   26.5444 O   0  0  0  0  0  0  0  0  0  0  0  0
    6.3184   10.1211   26.0792 N   0  0  0  0  0  0  0  0  0  0  0  0
    7.2813   10.8294   25.4068 C   0  0  0  0  0  0  0  0  0  0  0  0
    7.2880   12.2099   25.3483 C   0  0  0  0  0  0  0  0  0  0  0  0
    8.2464   12.8850   24.6134 C   0  0  0  0  0  0  0  0  0  0  0  0
    9.2004   12.2002   23.8788 C   0  0  0  0  0  0  0  0  0  0  0  0
   10.1610   12.9112   23.1311 N   0  0  0  0  0  0  0  0  0  0  0  0
   11.3647   13.2886   23.9050 C   0  0  0  0  0  0  0  0  0  0  0  0
   12.0254   14.6126   23.4699 C   0  0  0  0  0  0  0  0  0  0  0  0
   11.8601   14.9299   22.0775 N   0  0  0  0  0  0  0  0  0  0  0  0
   10.6087   14.8336   21.5211 C   0  0  0  0  0  0  0  0  0  0  0  0
   10.3100   15.4709   20.5139 O   0  0  0  0  0  0  0  0  0  0  0  0
    9.5875   14.0034   22.2925 C   0  0  0  0  0  0  0  0  0  0  0  0
    9.1218   10.8064   23.9701 C   0  0  0  0  0  0  0  0  0  0  0  0
    8.1998   10.1211   24.7251 N   0  0  0  0  0  0  0  0  0  0  0  0
    6.4856   12.2622   28.7029 C   0  0  0  0  0  0  0  0  0  0  0  0
  1  2  1  0
  2  3  1  0
  3  4  1  0
  4  5  2  0
  5  6  1  0
  6  7  2  0
  7  8  1  0
  8  9  1  0
  9 10  1  6
  9 11  1  0
 11 12  1  0
 12 13  2  0
 13 14  1  0
 14 15  2  0
 15 16  1  0
 16 17  1  0
 17 18  1  0
 18 19  1  0
 19 20  1  0
 20 21  2  0
 20 22  1  0
 15 23  1  0
 23 24  2  0
  8 25  2  0
 25  4  1  0
 24 12  1  0
 22 16  1  0
M  END
>  <Crystalforms alias>  (94) 
nan

>  <original ID>  (94) 
QVCJIISDXUHZMG-GOSISDBHSA-N

>  <alias>  (94) 
None

>  <distance_score>  (94) 
1.45832

>  <CanonSites upload name>  (94) 
nan

>  <CanonSites alias>  (94) 
nan

>  <ConformerSites alias>  (94) 
nan

>  <observation_longname>  (94) 
nan

>  <CrystalformSites alias>  (94) 
nan

>  <tags>  (94) 
[]

>  <ref_mols>  (94) 
A0528a,A0365a

>  <ref_pdb>  (94) 
A0310a

>  <Quatassemblies upload name>  (94) 
nan

>  <inchikey>  (94) 
QVCJIISDXUHZMG-GOSISDBHSA-N

>  <Experiment code>  (94) 
nan

>  <Quatassemblies alias>  (94) 
nan

>  <Crystalforms upload name>  (94) 
nan

>  <Centroid res>  (94) 
nan

>  <ConformerSites upload name>  (94) 
nan

>  <energy_score>  (94) 
-27.033471

>  <original SMILES>  (94) 
CCSc1cccc([C@@H](O)Nc2ccc(N3CCNC(=O)C3)cn2)c1

>  <exports>  (94) 
nan

>  <CrystalformSites upload name>  (94) 
nan

>  <name>  (94) 
QVCJIISDXUHZMG-GOSISDBHSA-N

>  <HIPPO ID>  (94) 
49018

$$$$
FLHVKWBUYFDPKJ-IBGZPJMESA-N
     RDKit          3D

 26 28  0  0  0  0  0  0  0  0999 V2000
    5.6318   15.0943   31.2073 C   0  0  0  0  0  0  0  0  0  0  0  0
    6.4874   15.2427   29.9619 C   0  0  0  0  0  0  0  0  0  0  0  0
    7.9681   14.1784   30.0330 S   0  0  0  0  0  0  0  0  0  0  0  0
    7.2340   12.5652   29.8289 C   0  0  0  0  0  0  0  0  0  0  0  0
    7.4239   11.5992   30.8184 C   0  0  0  0  0  0  0  0  0  0  0  0
    6.8956   10.3184   30.6609 C   0  0  0  0  0  0  0  0  0  0  0  0
    6.1932    9.9906   29.5010 C   0  0  0  0  0  0  0  0  0  0  0  0
    6.0024   10.9360   28.4816 C   0  0  0  0  0  0  0  0  0  0  0  0
    5.2523   10.5863   27.2143 C   0  0  2  0  0  0  0  0  0  0  0  0
    4.2618    9.6289   27.5290 O   0  0  0  0  0  0  0  0  0  0  0  0
    6.0549    9.9873   26.1902 N   0  0  0  0  0  0  0  0  0  0  0  0
    7.0111   10.6988   25.5027 C   0  0  0  0  0  0  0  0  0  0  0  0
    6.9491   12.0673   25.3013 C   0  0  0  0  0  0  0  0  0  0  0  0
    8.0390   12.7392   24.7611 C   0  0  0  0  0  0  0  0  0  0  0  0
    9.1635   12.0381   24.3633 C   0  0  0  0  0  0  0  0  0  0  0  0
   10.3339   12.6849   23.9480 N   0  0  0  0  0  0  0  0  0  0  0  0
   10.8660   13.8205   24.7224 C   0  0  0  0  0  0  0  0  0  0  0  0
   11.9706   14.5452   23.9343 C   0  0  0  0  0  0  0  0  0  0  0  0
   11.3762   15.1246   22.7497 N   0  0  0  0  0  0  0  0  0  0  0  0
   11.8953   16.3356   22.2015 C   0  0  0  0  0  0  0  0  0  0  0  0
   10.3756   14.4257   22.0909 C   0  0  0  0  0  0  0  0  0  0  0  0
    9.6433   14.9188   21.2387 O   0  0  0  0  0  0  0  0  0  0  0  0
   10.3129   12.9548   22.4996 C   0  0  0  0  0  0  0  0  0  0  0  0
    9.0322   10.6450   24.3847 C   0  0  0  0  0  0  0  0  0  0  0  0
    8.0115    9.9733   24.9831 N   0  0  0  0  0  0  0  0  0  0  0  0
    6.5250   12.2295   28.6703 C   0  0  0  0  0  0  0  0  0  0  0  0
  1  2  1  0
  2  3  1  0
  3  4  1  0
  4  5  2  0
  5  6  1  0
  6  7  2  0
  7  8  1  0
  8  9  1  0
  9 10  1  1
  9 11  1  0
 11 12  1  0
 12 13  2  0
 13 14  1  0
 14 15  2  0
 15 16  1  0
 16 17  1  0
 17 18  1  0
 18 19  1  0
 19 20  1  0
 19 21  1  0
 21 22  2  0
 21 23  1  0
 15 24  1  0
 24 25  2  0
  8 26  2  0
 26  4  1  0
 25 12  1  0
 23 16  1  0
M  END
>  <Crystalforms alias>  (95) 
nan

>  <original ID>  (95) 
FLHVKWBUYFDPKJ-IBGZPJMESA-N

>  <alias>  (95) 
None

>  <distance_score>  (95) 
1.502821

>  <CanonSites upload name>  (95) 
nan

>  <CanonSites alias>  (95) 
nan

>  <ConformerSites alias>  (95) 
nan

>  <observation_longname>  (95) 
nan

>  <CrystalformSites alias>  (95) 
nan

>  <tags>  (95) 
[]

>  <ref_mols>  (95) 
A0528a,A0365a

>  <ref_pdb>  (95) 
A0310a

>  <Quatassemblies upload name>  (95) 
nan

>  <inchikey>  (95) 
FLHVKWBUYFDPKJ-IBGZPJMESA-N

>  <Experiment code>  (95) 
nan

>  <Quatassemblies alias>  (95) 
nan

>  <Crystalforms upload name>  (95) 
nan

>  <Centroid res>  (95) 
nan

>  <ConformerSites upload name>  (95) 
nan

>  <energy_score>  (95) 
-29.891163

>  <original SMILES>  (95) 
CCSc1cccc([C@H](O)Nc2ccc(N3CCN(C)C(=O)C3)cn2)c1

>  <exports>  (95) 
nan

>  <CrystalformSites upload name>  (95) 
nan

>  <name>  (95) 
FLHVKWBUYFDPKJ-IBGZPJMESA-N

>  <HIPPO ID>  (95) 
50665

$$$$
FLHVKWBUYFDPKJ-LJQANCHMSA-N
     RDKit          3D

 26 28  0  0  0  0  0  0  0  0999 V2000
    9.9462   15.1429   28.9921 C   0  0  0  0  0  0  0  0  0  0  0  0
    8.5188   14.6709   28.7658 C   0  0  0  0  0  0  0  0  0  0  0  0
    7.7750   14.1436   30.3447 S   0  0  0  0  0  0  0  0  0  0  0  0
    7.1516   12.5149   29.9531 C   0  0  0  0  0  0  0  0  0  0  0  0
    7.3519   11.4931   30.8848 C   0  0  0  0  0  0  0  0  0  0  0  0
    6.8772   10.2046   30.6384 C   0  0  0  0  0  0  0  0  0  0  0  0
    6.2124    9.9213   29.4458 C   0  0  0  0  0  0  0  0  0  0  0  0
    5.9965   10.9230   28.4891 C   0  0  0  0  0  0  0  0  0  0  0  0
    5.3026   10.5622   27.1912 C   0  0  1  0  0  0  0  0  0  0  0  0
    4.5785   11.6567   26.6706 O   0  0  0  0  0  0  0  0  0  0  0  0
    6.1848   10.0379   26.1846 N   0  0  0  0  0  0  0  0  0  0  0  0
    7.1606   10.7316   25.5148 C   0  0  0  0  0  0  0  0  0  0  0  0
    7.1783   12.1112   25.4634 C   0  0  0  0  0  0  0  0  0  0  0  0
    8.1397   12.7769   24.7358 C   0  0  0  0  0  0  0  0  0  0  0  0
    9.0770   12.0820   23.9913 C   0  0  0  0  0  0  0  0  0  0  0  0
   10.0352   12.7884   23.2390 N   0  0  0  0  0  0  0  0  0  0  0  0
   11.2248   13.1725   24.0287 C   0  0  0  0  0  0  0  0  0  0  0  0
   11.8367   14.5296   23.6565 C   0  0  0  0  0  0  0  0  0  0  0  0
   11.7043   14.8474   22.2555 N   0  0  0  0  0  0  0  0  0  0  0  0
   12.5996   15.8101   21.6867 C   0  0  0  0  0  0  0  0  0  0  0  0
   10.4411   14.7549   21.6827 C   0  0  0  0  0  0  0  0  0  0  0  0
   10.0904   15.4108   20.7043 O   0  0  0  0  0  0  0  0  0  0  0  0
    9.4440   13.9032   22.4446 C   0  0  0  0  0  0  0  0  0  0  0  0
    8.9925   10.6899   24.0756 C   0  0  0  0  0  0  0  0  0  0  0  0
    8.0702   10.0128   24.8311 N   0  0  0  0  0  0  0  0  0  0  0  0
    6.4417   12.2291   28.7812 C   0  0  0  0  0  0  0  0  0  0  0  0
  1  2  1  0
  2  3  1  0
  3  4  1  0
  4  5  2  0
  5  6  1  0
  6  7  2  0
  7  8  1  0
  8  9  1  0
  9 10  1  6
  9 11  1  0
 11 12  1  0
 12 13  2  0
 13 14  1  0
 14 15  2  0
 15 16  1  0
 16 17  1  0
 17 18  1  0
 18 19  1  0
 19 20  1  0
 19 21  1  0
 21 22  2  0
 21 23  1  0
 15 24  1  0
 24 25  2  0
  8 26  2  0
 26  4  1  0
 25 12  1  0
 23 16  1  0
M  END
>  <Crystalforms alias>  (96) 
nan

>  <original ID>  (96) 
FLHVKWBUYFDPKJ-LJQANCHMSA-N

>  <alias>  (96) 
None

>  <distance_score>  (96) 
1.391923

>  <CanonSites upload name>  (96) 
nan

>  <CanonSites alias>  (96) 
nan

>  <ConformerSites alias>  (96) 
nan

>  <observation_longname>  (96) 
nan

>  <CrystalformSites alias>  (96) 
nan

>  <tags>  (96) 
[]

>  <ref_mols>  (96) 
A0528a,A0365a

>  <ref_pdb>  (96) 
A0310a

>  <Quatassemblies upload name>  (96) 
nan

>  <inchikey>  (96) 
FLHVKWBUYFDPKJ-LJQANCHMSA-N

>  <Experiment code>  (96) 
nan

>  <Quatassemblies alias>  (96) 
nan

>  <Crystalforms upload name>  (96) 
nan

>  <Centroid res>  (96) 
nan

>  <ConformerSites upload name>  (96) 
nan

>  <energy_score>  (96) 
-23.563977

>  <original SMILES>  (96) 
CCSc1cccc([C@@H](O)Nc2ccc(N3CCN(C)C(=O)C3)cn2)c1

>  <exports>  (96) 
nan

>  <CrystalformSites upload name>  (96) 
nan

>  <name>  (96) 
FLHVKWBUYFDPKJ-LJQANCHMSA-N

>  <HIPPO ID>  (96) 
50666

$$$$
XTQDUNSPBPDCKJ-UHFFFAOYSA-N
     RDKit          3D

 20 22  0  0  0  0  0  0  0  0999 V2000
    9.1380   10.6709   32.0401 N   0  0  0  0  0  0  0  0  0  0  0  0
    7.7824   11.1836   32.1738 C   0  0  0  0  0  0  0  0  0  0  0  0
    7.0983   11.3108   30.8353 C   0  0  0  0  0  0  0  0  0  0  0  0
    6.1582   10.3565   30.4134 C   0  0  0  0  0  0  0  0  0  0  0  0
    5.4830   10.5108   29.1980 C   0  0  0  0  0  0  0  0  0  0  0  0
    5.7718   11.6046   28.3792 C   0  0  0  0  0  0  0  0  0  0  0  0
    4.9695   11.8485   27.1536 C   0  0  0  0  0  0  0  0  0  0  0  0
    3.7446   11.8226   27.2295 O   0  0  0  0  0  0  0  0  0  0  0  0
    5.6358   12.2577   26.0227 N   0  0  0  0  0  0  0  0  0  0  0  0
    6.7663   11.6426   25.5110 C   0  0  0  0  0  0  0  0  0  0  0  0
    7.1537   10.3453   25.7396 C   0  0  0  0  0  0  0  0  0  0  0  0
    8.2158   10.0708   24.9214 N   0  0  0  0  0  0  0  0  0  0  0  0
    8.6061   11.2116   24.2682 C   0  0  0  0  0  0  0  0  0  0  0  0
    9.6927   11.4238   23.4220 C   0  0  0  0  0  0  0  0  0  0  0  0
    9.8484   12.6991   22.8872 C   0  0  0  0  0  0  0  0  0  0  0  0
    8.8965   13.6855   23.1058 C   0  0  0  0  0  0  0  0  0  0  0  0
    7.7991   13.4522   23.9406 C   0  0  0  0  0  0  0  0  0  0  0  0
    7.6698   12.1989   24.5652 C   0  0  0  0  0  0  0  0  0  0  0  0
    6.7251   12.5492   28.7782 C   0  0  0  0  0  0  0  0  0  0  0  0
    7.3809   12.4035   30.0019 C   0  0  0  0  0  0  0  0  0  0  0  0
  1  2  1  0
  2  3  1  0
  3  4  2  0
  4  5  1  0
  5  6  2  0
  6  7  1  0
  7  8  2  0
  7  9  1  0
  9 10  1  0
 10 11  2  0
 11 12  1  0
 12 13  1  0
 13 14  2  0
 14 15  1  0
 15 16  2  0
 16 17  1  0
 17 18  2  0
  6 19  1  0
 19 20  2  0
 20  3  1  0
 18 10  1  0
 18 13  1  0
M  END
>  <Crystalforms alias>  (97) 
nan

>  <original ID>  (97) 
XTQDUNSPBPDCKJ-UHFFFAOYSA-N

>  <alias>  (97) 
None

>  <distance_score>  (97) 
1.866367

>  <CanonSites upload name>  (97) 
nan

>  <CanonSites alias>  (97) 
nan

>  <ConformerSites alias>  (97) 
nan

>  <observation_longname>  (97) 
nan

>  <CrystalformSites alias>  (97) 
nan

>  <tags>  (97) 
['Syndirella scaffold']

>  <ref_mols>  (97) 
A0566a,A0365a

>  <ref_pdb>  (97) 
A0310a

>  <Quatassemblies upload name>  (97) 
nan

>  <inchikey>  (97) 
XTQDUNSPBPDCKJ-UHFFFAOYSA-N

>  <Experiment code>  (97) 
nan

>  <Quatassemblies alias>  (97) 
nan

>  <Crystalforms upload name>  (97) 
nan

>  <Centroid res>  (97) 
nan

>  <ConformerSites upload name>  (97) 
nan

>  <energy_score>  (97) 
-8.044358

>  <original SMILES>  (97) 
NCc1ccc(C(=O)Nc2c[nH]c3ccccc23)cc1

>  <exports>  (97) 
nan

>  <CrystalformSites upload name>  (97) 
nan

>  <name>  (97) 
XTQDUNSPBPDCKJ-UHFFFAOYSA-N

>  <HIPPO ID>  (97) 
62373

$$$$
HGWZRULWLGKUCR-UHFFFAOYSA-N
     RDKit          3D

 22 24  0  0  0  0  0  0  0  0999 V2000
    6.7539   11.0313   33.2491 N   0  0  0  0  0  0  0  0  0  0  0  0
    7.5777   11.3795   32.2095 C   0  0  0  0  0  0  0  0  0  0  0  0
    8.7826   11.7897   32.4994 N   0  0  0  0  0  0  0  0  0  0  0  0
    9.5620   12.0529   31.3684 O   0  0  0  0  0  0  0  0  0  0  0  0
    7.0277   11.2651   30.8327 C   0  0  0  0  0  0  0  0  0  0  0  0
    6.4950   10.0406   30.4045 C   0  0  0  0  0  0  0  0  0  0  0  0
    6.0201    9.9046   29.0963 C   0  0  0  0  0  0  0  0  0  0  0  0
    6.0661   11.0072   28.2408 C   0  0  0  0  0  0  0  0  0  0  0  0
    5.6933   10.9195   26.8168 C   0  0  0  0  0  0  0  0  0  0  0  0
    4.8372   11.6920   26.4063 O   0  0  0  0  0  0  0  0  0  0  0  0
    6.4034    9.9993   26.0734 N   0  0  0  0  0  0  0  0  0  0  0  0
    7.4054   10.3875   25.1821 C   0  0  0  0  0  0  0  0  0  0  0  0
    8.2852    9.4926   24.6205 C   0  0  0  0  0  0  0  0  0  0  0  0
    9.2087   10.1630   23.8698 N   0  0  0  0  0  0  0  0  0  0  0  0
    8.8877   11.4931   23.8478 C   0  0  0  0  0  0  0  0  0  0  0  0
    9.5055   12.5344   23.1547 C   0  0  0  0  0  0  0  0  0  0  0  0
    8.8493   13.7584   23.1392 C   0  0  0  0  0  0  0  0  0  0  0  0
    7.6664   13.9340   23.8486 C   0  0  0  0  0  0  0  0  0  0  0  0
    7.1265   12.9167   24.6284 C   0  0  0  0  0  0  0  0  0  0  0  0
    7.7301   11.6542   24.6187 C   0  0  0  0  0  0  0  0  0  0  0  0
    6.5336   12.2504   28.6932 C   0  0  0  0  0  0  0  0  0  0  0  0
    7.0226   12.3785   29.9903 C   0  0  0  0  0  0  0  0  0  0  0  0
  1  2  1  0
  2  3  2  0
  3  4  1  0
  2  5  1  0
  5  6  2  0
  6  7  1  0
  7  8  2  0
  8  9  1  0
  9 10  2  0
  9 11  1  0
 11 12  1  0
 12 13  2  0
 13 14  1  0
 14 15  1  0
 15 16  2  0
 16 17  1  0
 17 18  2  0
 18 19  1  0
 19 20  2  0
  8 21  1  0
 21 22  2  0
 22  5  1  0
 20 12  1  0
 20 15  1  0
M  END
>  <Crystalforms alias>  (98) 
nan

>  <original ID>  (98) 
HGWZRULWLGKUCR-UHFFFAOYSA-N

>  <alias>  (98) 
None

>  <distance_score>  (98) 
1.749014

>  <CanonSites upload name>  (98) 
nan

>  <CanonSites alias>  (98) 
nan

>  <ConformerSites alias>  (98) 
nan

>  <observation_longname>  (98) 
nan

>  <CrystalformSites alias>  (98) 
nan

>  <tags>  (98) 
[]

>  <ref_mols>  (98) 
A0566a,A0365a

>  <ref_pdb>  (98) 
A0310a

>  <Quatassemblies upload name>  (98) 
nan

>  <inchikey>  (98) 
HGWZRULWLGKUCR-UHFFFAOYSA-N

>  <Experiment code>  (98) 
nan

>  <Quatassemblies alias>  (98) 
nan

>  <Crystalforms upload name>  (98) 
nan

>  <Centroid res>  (98) 
nan

>  <ConformerSites upload name>  (98) 
nan

>  <energy_score>  (98) 
-38.066869

>  <original SMILES>  (98) 
N/C(=N/O)c1ccc(C(=O)Nc2c[nH]c3ccccc23)cc1

>  <exports>  (98) 
nan

>  <CrystalformSites upload name>  (98) 
nan

>  <name>  (98) 
HGWZRULWLGKUCR-UHFFFAOYSA-N

>  <HIPPO ID>  (98) 
62480

$$$$
HGWZRULWLGKUCR-UHFFFAOYSA-N
     RDKit          3D

 22 24  0  0  0  0  0  0  0  0999 V2000
    8.2772   12.6667   32.5487 N   0  0  0  0  0  0  0  0  0  0  0  0
    7.6251   11.5009   32.2183 C   0  0  0  0  0  0  0  0  0  0  0  0
    7.5307   10.5086   33.0581 N   0  0  0  0  0  0  0  0  0  0  0  0
    8.1815   10.8158   34.2660 O   0  0  0  0  0  0  0  0  0  0  0  0
    7.0260   11.3481   30.8547 C   0  0  0  0  0  0  0  0  0  0  0  0
    6.5933   10.0871   30.4102 C   0  0  0  0  0  0  0  0  0  0  0  0
    6.1097    9.9166   29.1072 C   0  0  0  0  0  0  0  0  0  0  0  0
    6.0585   11.0169   28.2531 C   0  0  0  0  0  0  0  0  0  0  0  0
    5.6871   10.9048   26.8288 C   0  0  0  0  0  0  0  0  0  0  0  0
    4.8317   11.6706   26.4034 O   0  0  0  0  0  0  0  0  0  0  0  0
    6.4056    9.9844   26.0938 N   0  0  0  0  0  0  0  0  0  0  0  0
    7.4057   10.3675   25.1987 C   0  0  0  0  0  0  0  0  0  0  0  0
    8.2676    9.4691   24.6158 C   0  0  0  0  0  0  0  0  0  0  0  0
    9.1826   10.1341   23.8496 N   0  0  0  0  0  0  0  0  0  0  0  0
    8.8887   11.4706   23.8627 C   0  0  0  0  0  0  0  0  0  0  0  0
    9.5155   12.5133   23.1804 C   0  0  0  0  0  0  0  0  0  0  0  0
    8.8940   13.7543   23.2165 C   0  0  0  0  0  0  0  0  0  0  0  0
    7.7328   13.9407   23.9586 C   0  0  0  0  0  0  0  0  0  0  0  0
    7.1757   12.9136   24.7116 C   0  0  0  0  0  0  0  0  0  0  0  0
    7.7481   11.6384   24.6571 C   0  0  0  0  0  0  0  0  0  0  0  0
    6.4255   12.2900   28.7111 C   0  0  0  0  0  0  0  0  0  0  0  0
    6.9116   12.4554   30.0075 C   0  0  0  0  0  0  0  0  0  0  0  0
  1  2  1  0
  2  3  2  0
  3  4  1  0
  2  5  1  0
  5  6  2  0
  6  7  1  0
  7  8  2  0
  8  9  1  0
  9 10  2  0
  9 11  1  0
 11 12  1  0
 12 13  2  0
 13 14  1  0
 14 15  1  0
 15 16  2  0
 16 17  1  0
 17 18  2  0
 18 19  1  0
 19 20  2  0
  8 21  1  0
 21 22  2  0
 22  5  1  0
 20 12  1  0
 20 15  1  0
M  END
>  <Crystalforms alias>  (99) 
nan

>  <original ID>  (99) 
HGWZRULWLGKUCR-UHFFFAOYSA-N

>  <alias>  (99) 
None

>  <distance_score>  (99) 
1.374795

>  <CanonSites upload name>  (99) 
nan

>  <CanonSites alias>  (99) 
nan

>  <ConformerSites alias>  (99) 
nan

>  <observation_longname>  (99) 
nan

>  <CrystalformSites alias>  (99) 
nan

>  <tags>  (99) 
[]

>  <ref_mols>  (99) 
A0566a,A0365a

>  <ref_pdb>  (99) 
A0310a

>  <Quatassemblies upload name>  (99) 
nan

>  <inchikey>  (99) 
HGWZRULWLGKUCR-UHFFFAOYSA-N

>  <Experiment code>  (99) 
nan

>  <Quatassemblies alias>  (99) 
nan

>  <Crystalforms upload name>  (99) 
nan

>  <Centroid res>  (99) 
nan

>  <ConformerSites upload name>  (99) 
nan

>  <energy_score>  (99) 
-22.147918

>  <original SMILES>  (99) 
N/C(=N\O)c1ccc(C(=O)Nc2c[nH]c3ccccc23)cc1

>  <exports>  (99) 
nan

>  <CrystalformSites upload name>  (99) 
nan

>  <name>  (99) 
HGWZRULWLGKUCR-UHFFFAOYSA-N

>  <HIPPO ID>  (99) 
62481

$$$$
FSZRFMSZNFEYRJ-UHFFFAOYSA-N
     RDKit          3D

 22 24  0  0  0  0  0  0  0  0999 V2000
    5.3049    9.3140   26.6143 C   0  0  0  0  0  0  0  0  0  0  0  0
    6.1318   10.4551   26.3512 N   0  0  0  0  0  0  0  0  0  0  0  0
    5.6968   11.5796   27.0365 C   0  0  0  0  0  0  0  0  0  0  0  0
    4.7406   12.2748   26.7120 O   0  0  0  0  0  0  0  0  0  0  0  0
    6.2848   11.7467   28.3890 C   0  0  0  0  0  0  0  0  0  0  0  0
    6.1514   10.7494   29.3675 C   0  0  0  0  0  0  0  0  0  0  0  0
    6.7823   10.8854   30.6016 C   0  0  0  0  0  0  0  0  0  0  0  0
    7.5252   12.0363   30.8805 C   0  0  0  0  0  0  0  0  0  0  0  0
    8.2704   12.1687   32.1796 C   0  0  0  0  0  0  0  0  0  0  0  0
    9.6426   11.7007   32.0281 N   0  0  0  0  0  0  0  0  0  0  0  0
    7.6036   13.0548   29.9168 C   0  0  0  0  0  0  0  0  0  0  0  0
    6.9764   12.9184   28.6788 C   0  0  0  0  0  0  0  0  0  0  0  0
    7.2224   10.5021   25.4506 C   0  0  0  0  0  0  0  0  0  0  0  0
    7.8043    9.4389   24.8004 C   0  0  0  0  0  0  0  0  0  0  0  0
    8.8220    9.8442   23.9794 N   0  0  0  0  0  0  0  0  0  0  0  0
    9.5400    9.0010   23.0472 C   0  0  0  0  0  0  0  0  0  0  0  0
    8.9361   11.1997   24.0610 C   0  0  0  0  0  0  0  0  0  0  0  0
    9.8146   12.0658   23.3960 C   0  0  0  0  0  0  0  0  0  0  0  0
    9.6444   13.4192   23.5772 C   0  0  0  0  0  0  0  0  0  0  0  0
    8.6083   13.8592   24.3793 C   0  0  0  0  0  0  0  0  0  0  0  0
    7.7336   13.0006   25.0339 C   0  0  0  0  0  0  0  0  0  0  0  0
    7.9168   11.6306   24.9218 C   0  0  0  0  0  0  0  0  0  0  0  0
  1  2  1  0
  2  3  1  0
  3  4  2  0
  3  5  1  0
  5  6  2  0
  6  7  1  0
  7  8  2  0
  8  9  1  0
  9 10  1  0
  8 11  1  0
 11 12  2  0
  2 13  1  0
 13 14  2  0
 14 15  1  0
 15 16  1  0
 15 17  1  0
 17 18  2  0
 18 19  1  0
 19 20  2  0
 20 21  1  0
 21 22  2  0
 12  5  1  0
 22 13  1  0
 22 17  1  0
M  END
>  <Crystalforms alias>  (100) 
nan

>  <original ID>  (100) 
FSZRFMSZNFEYRJ-UHFFFAOYSA-N

>  <alias>  (100) 
None

>  <distance_score>  (100) 
1.412975

>  <CanonSites upload name>  (100) 
nan

>  <CanonSites alias>  (100) 
nan

>  <ConformerSites alias>  (100) 
nan

>  <observation_longname>  (100) 
nan

>  <CrystalformSites alias>  (100) 
nan

>  <tags>  (100) 
[]

>  <ref_mols>  (100) 
A0566a,A0365a

>  <ref_pdb>  (100) 
A0310a

>  <Quatassemblies upload name>  (100) 
nan

>  <inchikey>  (100) 
FSZRFMSZNFEYRJ-UHFFFAOYSA-N

>  <Experiment code>  (100) 
nan

>  <Quatassemblies alias>  (100) 
nan

>  <Crystalforms upload name>  (100) 
nan

>  <Centroid res>  (100) 
nan

>  <ConformerSites upload name>  (100) 
nan

>  <energy_score>  (100) 
-21.386103

>  <original SMILES>  (100) 
CN(C(=O)c1ccc(CN)cc1)c1cn(C)c2ccccc12

>  <exports>  (100) 
nan

>  <CrystalformSites upload name>  (100) 
nan

>  <name>  (100) 
FSZRFMSZNFEYRJ-UHFFFAOYSA-N

>  <HIPPO ID>  (100) 
63236

$$$$
SYPSDGXBHQRXEP-UHFFFAOYSA-N
     RDKit          3D

 24 26  0  0  0  0  0  0  0  0999 V2000
    5.3897    9.3782   26.5674 C   0  0  0  0  0  0  0  0  0  0  0  0
    6.0925   10.5779   26.2254 N   0  0  0  0  0  0  0  0  0  0  0  0
    5.6382   11.6872   26.9212 C   0  0  0  0  0  0  0  0  0  0  0  0
    4.6546   12.3545   26.6230 O   0  0  0  0  0  0  0  0  0  0  0  0
    6.2077   11.8235   28.2856 C   0  0  0  0  0  0  0  0  0  0  0  0
    5.9170   10.8696   29.2759 C   0  0  0  0  0  0  0  0  0  0  0  0
    6.5288   10.9424   30.5225 C   0  0  0  0  0  0  0  0  0  0  0  0
    7.4029   11.9952   30.7955 C   0  0  0  0  0  0  0  0  0  0  0  0
    8.0345   12.0464   32.1431 C   0  0  0  0  0  0  0  0  0  0  0  0
    7.2265   11.8151   33.2298 N   0  0  0  0  0  0  0  0  0  0  0  0
    9.2944   12.2879   32.3832 N   0  0  0  0  0  0  0  0  0  0  0  0
   10.0639   12.4234   31.2275 O   0  0  0  0  0  0  0  0  0  0  0  0
    7.6245   12.9952   29.8388 C   0  0  0  0  0  0  0  0  0  0  0  0
    7.0326   12.9068   28.5749 C   0  0  0  0  0  0  0  0  0  0  0  0
    7.2141   10.6411   25.3749 C   0  0  0  0  0  0  0  0  0  0  0  0
    7.9215    9.5695   24.8811 C   0  0  0  0  0  0  0  0  0  0  0  0
    8.9522    9.9894   24.0905 N   0  0  0  0  0  0  0  0  0  0  0  0
    9.8447    9.1522   23.3223 C   0  0  0  0  0  0  0  0  0  0  0  0
    8.9073   11.3471   23.9818 C   0  0  0  0  0  0  0  0  0  0  0  0
    9.7153   12.1969   23.2201 C   0  0  0  0  0  0  0  0  0  0  0  0
    9.2208   13.4539   22.9518 C   0  0  0  0  0  0  0  0  0  0  0  0
    7.9980   13.8262   23.4839 C   0  0  0  0  0  0  0  0  0  0  0  0
    7.3027   13.0444   24.4087 C   0  0  0  0  0  0  0  0  0  0  0  0
    7.7614   11.7569   24.6713 C   0  0  0  0  0  0  0  0  0  0  0  0
  1  2  1  0
  2  3  1  0
  3  4  2  0
  3  5  1  0
  5  6  2  0
  6  7  1  0
  7  8  2  0
  8  9  1  0
  9 10  1  0
  9 11  2  0
 11 12  1  0
  8 13  1  0
 13 14  2  0
  2 15  1  0
 15 16  2  0
 16 17  1  0
 17 18  1  0
 17 19  1  0
 19 20  2  0
 20 21  1  0
 21 22  2  0
 22 23  1  0
 23 24  2  0
 14  5  1  0
 24 15  1  0
 24 19  1  0
M  END
>  <Crystalforms alias>  (101) 
nan

>  <original ID>  (101) 
SYPSDGXBHQRXEP-UHFFFAOYSA-N

>  <alias>  (101) 
None

>  <distance_score>  (101) 
1.423109

>  <CanonSites upload name>  (101) 
nan

>  <CanonSites alias>  (101) 
nan

>  <ConformerSites alias>  (101) 
nan

>  <observation_longname>  (101) 
nan

>  <CrystalformSites alias>  (101) 
nan

>  <tags>  (101) 
[]

>  <ref_mols>  (101) 
A0566a,A0365a

>  <ref_pdb>  (101) 
A0310a

>  <Quatassemblies upload name>  (101) 
nan

>  <inchikey>  (101) 
SYPSDGXBHQRXEP-UHFFFAOYSA-N

>  <Experiment code>  (101) 
nan

>  <Quatassemblies alias>  (101) 
nan

>  <Crystalforms upload name>  (101) 
nan

>  <Centroid res>  (101) 
nan

>  <ConformerSites upload name>  (101) 
nan

>  <energy_score>  (101) 
-60.864415

>  <original SMILES>  (101) 
CN(C(=O)c1ccc(/C(N)=N\O)cc1)c1cn(C)c2ccccc12

>  <exports>  (101) 
nan

>  <CrystalformSites upload name>  (101) 
nan

>  <name>  (101) 
SYPSDGXBHQRXEP-UHFFFAOYSA-N

>  <HIPPO ID>  (101) 
69992

$$$$
SYPSDGXBHQRXEP-UHFFFAOYSA-N
     RDKit          3D

 24 26  0  0  0  0  0  0  0  0999 V2000
    5.3865    9.3719   26.5755 C   0  0  0  0  0  0  0  0  0  0  0  0
    6.0762   10.5753   26.2203 N   0  0  0  0  0  0  0  0  0  0  0  0
    5.6022   11.6847   26.9033 C   0  0  0  0  0  0  0  0  0  0  0  0
    4.5894   12.3117   26.6161 O   0  0  0  0  0  0  0  0  0  0  0  0
    6.1793   11.8449   28.2599 C   0  0  0  0  0  0  0  0  0  0  0  0
    5.8893   10.9080   29.2661 C   0  0  0  0  0  0  0  0  0  0  0  0
    6.5258   10.9813   30.5011 C   0  0  0  0  0  0  0  0  0  0  0  0
    7.4181   12.0248   30.7517 C   0  0  0  0  0  0  0  0  0  0  0  0
    8.1567   12.0756   32.0472 C   0  0  0  0  0  0  0  0  0  0  0  0
    7.7605   11.2675   33.0895 N   0  0  0  0  0  0  0  0  0  0  0  0
    9.1709   12.8853   32.1508 N   0  0  0  0  0  0  0  0  0  0  0  0
    9.7251   12.8256   33.4394 O   0  0  0  0  0  0  0  0  0  0  0  0
    7.6417   13.0052   29.7704 C   0  0  0  0  0  0  0  0  0  0  0  0
    7.0260   12.9157   28.5191 C   0  0  0  0  0  0  0  0  0  0  0  0
    7.2028   10.6430   25.3764 C   0  0  0  0  0  0  0  0  0  0  0  0
    7.9183    9.5743   24.8873 C   0  0  0  0  0  0  0  0  0  0  0  0
    8.9482    9.9984   24.0976 N   0  0  0  0  0  0  0  0  0  0  0  0
    9.8424    9.1659   23.3263 C   0  0  0  0  0  0  0  0  0  0  0  0
    8.8978   11.3558   23.9882 C   0  0  0  0  0  0  0  0  0  0  0  0
    9.7045   12.2086   23.2282 C   0  0  0  0  0  0  0  0  0  0  0  0
    9.2037   13.4623   22.9556 C   0  0  0  0  0  0  0  0  0  0  0  0
    7.9762   13.8289   23.4813 C   0  0  0  0  0  0  0  0  0  0  0  0
    7.2813   13.0447   24.4045 C   0  0  0  0  0  0  0  0  0  0  0  0
    7.7466   11.7605   24.6722 C   0  0  0  0  0  0  0  0  0  0  0  0
  1  2  1  0
  2  3  1  0
  3  4  2  0
  3  5  1  0
  5  6  2  0
  6  7  1  0
  7  8  2  0
  8  9  1  0
  9 10  1  0
  9 11  2  0
 11 12  1  0
  8 13  1  0
 13 14  2  0
  2 15  1  0
 15 16  2  0
 16 17  1  0
 17 18  1  0
 17 19  1  0
 19 20  2  0
 20 21  1  0
 21 22  2  0
 22 23  1  0
 23 24  2  0
 14  5  1  0
 24 15  1  0
 24 19  1  0
M  END
>  <Crystalforms alias>  (102) 
nan

>  <original ID>  (102) 
SYPSDGXBHQRXEP-UHFFFAOYSA-N

>  <alias>  (102) 
None

>  <distance_score>  (102) 
1.420441

>  <CanonSites upload name>  (102) 
nan

>  <CanonSites alias>  (102) 
nan

>  <ConformerSites alias>  (102) 
nan

>  <observation_longname>  (102) 
nan

>  <CrystalformSites alias>  (102) 
nan

>  <tags>  (102) 
[]

>  <ref_mols>  (102) 
A0566a,A0365a

>  <ref_pdb>  (102) 
A0310a

>  <Quatassemblies upload name>  (102) 
nan

>  <inchikey>  (102) 
SYPSDGXBHQRXEP-UHFFFAOYSA-N

>  <Experiment code>  (102) 
nan

>  <Quatassemblies alias>  (102) 
nan

>  <Crystalforms upload name>  (102) 
nan

>  <Centroid res>  (102) 
nan

>  <ConformerSites upload name>  (102) 
nan

>  <energy_score>  (102) 
-48.959026

>  <original SMILES>  (102) 
CN(C(=O)c1ccc(/C(N)=N/O)cc1)c1cn(C)c2ccccc12

>  <exports>  (102) 
nan

>  <CrystalformSites upload name>  (102) 
nan

>  <name>  (102) 
SYPSDGXBHQRXEP-UHFFFAOYSA-N

>  <HIPPO ID>  (102) 
69993

$$$$
RITPLYRSMBAKOI-LLVKDONJSA-N
     RDKit          3D

 21 22  0  0  0  0  0  0  0  0999 V2000
    4.8749    8.4550   28.0288 C   0  0  0  0  0  0  0  0  0  0  0  0
    6.0179    9.2569   27.7574 O   0  0  0  0  0  0  0  0  0  0  0  0
    5.7303   10.4628   27.2186 C   0  0  0  0  0  0  0  0  0  0  0  0
    4.5830   11.1963   27.4585 C   0  0  0  0  0  0  0  0  0  0  0  0
    4.3182   12.3926   26.9044 N   0  0  0  0  0  0  0  0  0  0  0  0
    5.2794   12.9162   26.1362 C   0  0  0  0  0  0  0  0  0  0  0  0
    6.4962   12.3063   25.9245 C   0  0  0  0  0  0  0  0  0  0  0  0
    7.5465   13.0667   25.2255 C   0  0  0  0  0  0  0  0  0  0  0  0
    7.9895   12.3362   23.9991 C   0  0  0  0  0  0  0  0  0  0  0  0
    9.4685   12.3353   23.8939 C   0  0  0  0  0  0  0  0  0  0  0  0
   10.0896   11.3190   23.6153 O   0  0  0  0  0  0  0  0  0  0  0  0
   10.0418   13.5901   24.0089 N   0  0  0  0  0  0  0  0  0  0  0  0
   11.0238   13.8157   22.9929 C   0  0  2  0  0  0  0  0  0  0  0  0
   12.0405   14.8924   23.2259 C   0  0  0  0  0  0  0  0  0  0  0  0
   12.2979   15.3136   21.8033 C   0  0  0  0  0  0  0  0  0  0  0  0
   13.2259   16.0349   21.4958 O   0  0  0  0  0  0  0  0  0  0  0  0
   11.2878   14.8602   21.0099 N   0  0  0  0  0  0  0  0  0  0  0  0
   11.0541   15.0558   19.6107 C   0  0  0  0  0  0  0  0  0  0  0  0
   10.3059   14.3702   21.7911 C   0  0  0  0  0  0  0  0  0  0  0  0
    9.0976   14.4333   21.6250 O   0  0  0  0  0  0  0  0  0  0  0  0
    6.7076   11.0306   26.4307 C   0  0  0  0  0  0  0  0  0  0  0  0
  1  2  1  0
  2  3  1  0
  3  4  2  0
  4  5  1  0
  5  6  2  0
  6  7  1  0
  7  8  1  0
  8  9  1  0
  9 10  1  0
 10 11  2  0
 10 12  1  0
 13 12  1  1
 13 14  1  0
 14 15  1  0
 15 16  2  0
 15 17  1  0
 17 18  1  0
 17 19  1  0
 19 20  2  0
  7 21  2  0
 21  3  1  0
 19 13  1  0
M  END
>  <Crystalforms alias>  (103) 
nan

>  <original ID>  (103) 
RITPLYRSMBAKOI-LLVKDONJSA-N

>  <alias>  (103) 
None

>  <distance_score>  (103) 
2.62679

>  <CanonSites upload name>  (103) 
nan

>  <CanonSites alias>  (103) 
nan

>  <ConformerSites alias>  (103) 
nan

>  <observation_longname>  (103) 
nan

>  <CrystalformSites alias>  (103) 
nan

>  <tags>  (103) 
[]

>  <ref_mols>  (103) 
A0515a,A0528a

>  <ref_pdb>  (103) 
A0310a

>  <Quatassemblies upload name>  (103) 
nan

>  <inchikey>  (103) 
RITPLYRSMBAKOI-LLVKDONJSA-N

>  <Experiment code>  (103) 
nan

>  <Quatassemblies alias>  (103) 
nan

>  <Crystalforms upload name>  (103) 
nan

>  <Centroid res>  (103) 
nan

>  <ConformerSites upload name>  (103) 
nan

>  <energy_score>  (103) 
-5.407376

>  <original SMILES>  (103) 
COc1cncc(CCC(=O)N[C@@H]2CC(=O)N(C)C2=O)c1

>  <exports>  (103) 
nan

>  <CrystalformSites upload name>  (103) 
nan

>  <name>  (103) 
RITPLYRSMBAKOI-LLVKDONJSA-N

>  <HIPPO ID>  (103) 
71048

$$$$
RITPLYRSMBAKOI-NSHDSACASA-N
     RDKit          3D

 21 22  0  0  0  0  0  0  0  0999 V2000
    4.1516    8.0353   26.8940 C   0  0  0  0  0  0  0  0  0  0  0  0
    4.3503    9.1563   27.7330 O   0  0  0  0  0  0  0  0  0  0  0  0
    5.2447   10.1117   27.4201 C   0  0  0  0  0  0  0  0  0  0  0  0
    5.2675   11.2246   28.2495 C   0  0  0  0  0  0  0  0  0  0  0  0
    6.0931   12.2825   28.1032 N   0  0  0  0  0  0  0  0  0  0  0  0
    6.9324   12.2253   27.0684 C   0  0  0  0  0  0  0  0  0  0  0  0
    6.9788   11.1602   26.1898 C   0  0  0  0  0  0  0  0  0  0  0  0
    7.9230   11.1305   25.0698 C   0  0  0  0  0  0  0  0  0  0  0  0
    7.7779   12.3945   24.2717 C   0  0  0  0  0  0  0  0  0  0  0  0
    8.8144   12.2896   23.2287 C   0  0  0  0  0  0  0  0  0  0  0  0
    9.5211   11.3062   23.0629 O   0  0  0  0  0  0  0  0  0  0  0  0
    9.0094   13.4699   22.5879 N   0  0  0  0  0  0  0  0  0  0  0  0
   10.1768   14.1475   23.0249 C   0  0  1  0  0  0  0  0  0  0  0  0
   11.3738   13.3442   23.4709 C   0  0  0  0  0  0  0  0  0  0  0  0
   12.4371   14.3500   23.2852 C   0  0  0  0  0  0  0  0  0  0  0  0
   13.4625   14.3631   23.9392 O   0  0  0  0  0  0  0  0  0  0  0  0
   12.0430   15.1702   22.2771 N   0  0  0  0  0  0  0  0  0  0  0  0
   12.9046   15.9989   21.5352 C   0  0  0  0  0  0  0  0  0  0  0  0
   10.7287   15.0294   21.9573 C   0  0  0  0  0  0  0  0  0  0  0  0
   10.0985   15.5603   21.0610 O   0  0  0  0  0  0  0  0  0  0  0  0
    6.1217   10.0948   26.3688 C   0  0  0  0  0  0  0  0  0  0  0  0
  1  2  1  0
  2  3  1  0
  3  4  2  0
  4  5  1  0
  5  6  2  0
  6  7  1  0
  7  8  1  0
  8  9  1  0
  9 10  1  0
 10 11  2  0
 10 12  1  0
 13 12  1  6
 13 14  1  0
 14 15  1  0
 15 16  2  0
 15 17  1  0
 17 18  1  0
 17 19  1  0
 19 20  2  0
  7 21  2  0
 21  3  1  0
 19 13  1  0
M  END
>  <Crystalforms alias>  (104) 
nan

>  <original ID>  (104) 
RITPLYRSMBAKOI-NSHDSACASA-N

>  <alias>  (104) 
None

>  <distance_score>  (104) 
2.326053

>  <CanonSites upload name>  (104) 
nan

>  <CanonSites alias>  (104) 
nan

>  <ConformerSites alias>  (104) 
nan

>  <observation_longname>  (104) 
nan

>  <CrystalformSites alias>  (104) 
nan

>  <tags>  (104) 
[]

>  <ref_mols>  (104) 
A0515a,A0528a

>  <ref_pdb>  (104) 
A0310a

>  <Quatassemblies upload name>  (104) 
nan

>  <inchikey>  (104) 
RITPLYRSMBAKOI-NSHDSACASA-N

>  <Experiment code>  (104) 
nan

>  <Quatassemblies alias>  (104) 
nan

>  <Crystalforms upload name>  (104) 
nan

>  <Centroid res>  (104) 
nan

>  <ConformerSites upload name>  (104) 
nan

>  <energy_score>  (104) 
5.036003

>  <original SMILES>  (104) 
COc1cncc(CCC(=O)N[C@H]2CC(=O)N(C)C2=O)c1

>  <exports>  (104) 
nan

>  <CrystalformSites upload name>  (104) 
nan

>  <name>  (104) 
RITPLYRSMBAKOI-NSHDSACASA-N

>  <HIPPO ID>  (104) 
71049

$$$$
NKHJVGNWKQVXFO-MRVPVSSYSA-N
     RDKit          3D

 18 19  0  0  0  0  0  0  0  0999 V2000
    9.1328   10.1728   24.5582 O   0  0  0  0  0  0  0  0  0  0  0  0
    8.5044   11.1937   24.3418 C   0  0  0  0  0  0  0  0  0  0  0  0
    8.6047   11.8071   23.1543 O   0  0  0  0  0  0  0  0  0  0  0  0
    8.4344   13.2174   22.9305 C   0  0  0  0  0  0  0  0  0  0  0  0
    9.7363   13.9826   23.1583 C   0  0  1  0  0  0  0  0  0  0  0  0
   10.9548   13.1431   23.5204 C   0  0  0  0  0  0  0  0  0  0  0  0
   12.1778   14.0295   23.7135 C   0  0  0  0  0  0  0  0  0  0  0  0
   12.4219   14.8082   22.4400 C   0  0  0  0  0  0  0  0  0  0  0  0
   11.2534   15.5290   22.0281 N   0  0  0  0  0  0  0  0  0  0  0  0
   10.0362   14.9028   21.9830 C   0  0  0  0  0  0  0  0  0  0  0  0
    9.2198   15.2139   21.1237 O   0  0  0  0  0  0  0  0  0  0  0  0
    7.5605   11.7209   25.3406 C   0  0  0  0  0  0  0  0  0  0  0  0
    7.6039   13.0160   25.8568 C   0  0  0  0  0  0  0  0  0  0  0  0
    6.6566   13.3856   26.7944 C   0  0  0  0  0  0  0  0  0  0  0  0
    5.7281   12.5408   27.2830 N   0  0  0  0  0  0  0  0  0  0  0  0
    5.7388   11.2778   26.8023 C   0  0  0  0  0  0  0  0  0  0  0  0
    6.6275   10.8342   25.8466 C   0  0  0  0  0  0  0  0  0  0  0  0
    6.5679    9.5713   25.4230 F   0  0  0  0  0  0  0  0  0  0  0  0
  1  2  2  0
  2  3  1  0
  3  4  1  0
  5  4  1  6
  5  6  1  0
  6  7  1  0
  7  8  1  0
  8  9  1  0
  9 10  1  0
 10 11  2  0
  2 12  1  0
 12 13  2  0
 13 14  1  0
 14 15  2  0
 15 16  1  0
 16 17  2  0
 17 18  1  0
 10  5  1  0
 17 12  1  0
M  END
>  <Crystalforms alias>  (105) 
nan

>  <original ID>  (105) 
NKHJVGNWKQVXFO-MRVPVSSYSA-N

>  <alias>  (105) 
None

>  <distance_score>  (105) 
1.171177

>  <CanonSites upload name>  (105) 
nan

>  <CanonSites alias>  (105) 
nan

>  <ConformerSites alias>  (105) 
nan

>  <observation_longname>  (105) 
nan

>  <CrystalformSites alias>  (105) 
nan

>  <tags>  (105) 
['Syndirella scaffold']

>  <ref_mols>  (105) 
A0515a,A0528a

>  <ref_pdb>  (105) 
A0310a

>  <Quatassemblies upload name>  (105) 
nan

>  <inchikey>  (105) 
NKHJVGNWKQVXFO-MRVPVSSYSA-N

>  <Experiment code>  (105) 
nan

>  <Quatassemblies alias>  (105) 
nan

>  <Crystalforms upload name>  (105) 
nan

>  <Centroid res>  (105) 
nan

>  <ConformerSites upload name>  (105) 
nan

>  <energy_score>  (105) 
-13.261243

>  <original SMILES>  (105) 
O=C(OC[C@H]1CCCNC1=O)c1ccncc1F

>  <exports>  (105) 
nan

>  <CrystalformSites upload name>  (105) 
nan

>  <name>  (105) 
NKHJVGNWKQVXFO-MRVPVSSYSA-N

>  <HIPPO ID>  (105) 
75020

$$$$
YUPSVGUKNNPRCB-SSDOTTSWSA-N
     RDKit          3D

 19 20  0  0  0  0  0  0  0  0999 V2000
    9.1028   10.2319   24.5181 O   0  0  0  0  0  0  0  0  0  0  0  0
    8.4971   11.2662   24.2969 C   0  0  0  0  0  0  0  0  0  0  0  0
    8.6043   11.8705   23.1051 O   0  0  0  0  0  0  0  0  0  0  0  0
    8.4821   13.2850   22.8560 C   0  0  0  0  0  0  0  0  0  0  0  0
    9.8114   14.0157   23.0527 C   0  0  1  0  0  0  0  0  0  0  0  0
   10.9906   13.1521   23.4778 C   0  0  0  0  0  0  0  0  0  0  0  0
   12.2207   13.9989   23.7885 C   0  0  0  0  0  0  0  0  0  0  0  0
   12.3375   15.2299   22.9042 C   0  0  0  0  0  0  0  0  0  0  0  0
   11.5196   15.1485   21.7316 N   0  0  0  0  0  0  0  0  0  0  0  0
   10.1986   14.7990   21.8016 C   0  0  0  0  0  0  0  0  0  0  0  0
    9.4062   15.1640   20.9421 O   0  0  0  0  0  0  0  0  0  0  0  0
    7.5943   11.8314   25.3141 C   0  0  0  0  0  0  0  0  0  0  0  0
    7.6786   13.1463   25.7757 C   0  0  0  0  0  0  0  0  0  0  0  0
    6.8144   13.5577   26.7691 C   0  0  0  0  0  0  0  0  0  0  0  0
    5.9578   12.7269   27.3836 N   0  0  0  0  0  0  0  0  0  0  0  0
    5.9366   11.4372   26.9702 C   0  0  0  0  0  0  0  0  0  0  0  0
    4.7772   10.1397   28.1125 I   0  0  0  0  0  0  0  0  0  0  0  0
    6.7117   10.9570   25.9299 C   0  0  0  0  0  0  0  0  0  0  0  0
    6.6448    9.6776   25.5466 F   0  0  0  0  0  0  0  0  0  0  0  0
  1  2  2  0
  2  3  1  0
  3  4  1  0
  5  4  1  6
  5  6  1  0
  6  7  1  0
  7  8  1  0
  8  9  1  0
  9 10  1  0
 10 11  2  0
  2 12  1  0
 12 13  2  0
 13 14  1  0
 14 15  2  0
 15 16  1  0
 16 17  1  0
 16 18  2  0
 18 19  1  0
 10  5  1  0
 18 12  1  0
M  END
>  <Crystalforms alias>  (106) 
nan

>  <original ID>  (106) 
YUPSVGUKNNPRCB-SSDOTTSWSA-N

>  <alias>  (106) 
None

>  <distance_score>  (106) 
1.210851

>  <CanonSites upload name>  (106) 
nan

>  <CanonSites alias>  (106) 
nan

>  <ConformerSites alias>  (106) 
nan

>  <observation_longname>  (106) 
nan

>  <CrystalformSites alias>  (106) 
nan

>  <tags>  (106) 
[]

>  <ref_mols>  (106) 
A0515a,A0528a

>  <ref_pdb>  (106) 
A0310a

>  <Quatassemblies upload name>  (106) 
nan

>  <inchikey>  (106) 
YUPSVGUKNNPRCB-SSDOTTSWSA-N

>  <Experiment code>  (106) 
nan

>  <Quatassemblies alias>  (106) 
nan

>  <Crystalforms upload name>  (106) 
nan

>  <Centroid res>  (106) 
nan

>  <ConformerSites upload name>  (106) 
nan

>  <energy_score>  (106) 
2.869733

>  <original SMILES>  (106) 
O=C(OC[C@H]1CCCNC1=O)c1ccnc(I)c1F

>  <exports>  (106) 
nan

>  <CrystalformSites upload name>  (106) 
nan

>  <name>  (106) 
YUPSVGUKNNPRCB-SSDOTTSWSA-N

>  <HIPPO ID>  (106) 
75061

$$$$
YOZGXEFFSUYIHZ-UHFFFAOYSA-N
     RDKit          3D

 15 15  0  0  0  0  0  0  0  0999 V2000
   11.8089   16.6236   22.6298 N   0  0  0  0  0  0  0  0  0  0  0  0
   11.8820   15.4738   22.5043 C   0  0  0  0  0  0  0  0  0  0  0  0
   11.9108   14.0267   22.3520 C   0  0  0  0  0  0  0  0  0  0  0  0
   11.0159   13.4094   23.3816 C   0  0  0  0  0  0  0  0  0  0  0  0
   10.9521   13.8380   24.5356 O   0  0  0  0  0  0  0  0  0  0  0  0
   10.3001   12.3035   22.9536 N   0  0  0  0  0  0  0  0  0  0  0  0
    9.2355   11.8331   23.7325 C   0  0  0  0  0  0  0  0  0  0  0  0
    8.9696   10.4804   23.8666 C   0  0  0  0  0  0  0  0  0  0  0  0
    7.9506   10.0941   24.7428 C   0  0  0  0  0  0  0  0  0  0  0  0
    7.1943   11.0781   25.3947 C   0  0  0  0  0  0  0  0  0  0  0  0
    6.0480   10.8317   26.3313 C   0  0  0  0  0  0  0  0  0  0  0  0
    5.6961    9.5561   26.6110 N   0  0  0  0  0  0  0  0  0  0  0  0
    5.4063   11.7301   26.8666 O   0  0  0  0  0  0  0  0  0  0  0  0
    7.4221   12.3894   25.2244 N   0  0  0  0  0  0  0  0  0  0  0  0
    8.4229   12.7366   24.4123 C   0  0  0  0  0  0  0  0  0  0  0  0
  1  2  3  0
  2  3  1  0
  3  4  1  0
  4  5  2  0
  4  6  1  0
  6  7  1  0
  7  8  2  0
  8  9  1  0
  9 10  2  0
 10 11  1  0
 11 12  1  0
 11 13  2  0
 10 14  1  0
 14 15  2  0
 15  7  1  0
M  END
>  <Crystalforms alias>  (107) 
nan

>  <original ID>  (107) 
YOZGXEFFSUYIHZ-UHFFFAOYSA-N

>  <alias>  (107) 
None

>  <distance_score>  (107) 
1.191251

>  <CanonSites upload name>  (107) 
nan

>  <CanonSites alias>  (107) 
nan

>  <ConformerSites alias>  (107) 
nan

>  <observation_longname>  (107) 
nan

>  <CrystalformSites alias>  (107) 
nan

>  <tags>  (107) 
['Syndirella scaffold']

>  <ref_mols>  (107) 
A0556a,A0310a

>  <ref_pdb>  (107) 
A0310a

>  <Quatassemblies upload name>  (107) 
nan

>  <inchikey>  (107) 
YOZGXEFFSUYIHZ-UHFFFAOYSA-N

>  <Experiment code>  (107) 
nan

>  <Quatassemblies alias>  (107) 
nan

>  <Crystalforms upload name>  (107) 
nan

>  <Centroid res>  (107) 
nan

>  <ConformerSites upload name>  (107) 
nan

>  <energy_score>  (107) 
-15.154802

>  <original SMILES>  (107) 
N#CCC(=O)Nc1ccc(C(N)=O)nc1

>  <exports>  (107) 
nan

>  <CrystalformSites upload name>  (107) 
nan

>  <name>  (107) 
YOZGXEFFSUYIHZ-UHFFFAOYSA-N

>  <HIPPO ID>  (107) 
78820

$$$$
ROIULVNAJXYDAA-UHFFFAOYSA-N
     RDKit          3D

 16 16  0  0  0  0  0  0  0  0999 V2000
   11.7800   16.7327   22.5974 N   0  0  0  0  0  0  0  0  0  0  0  0
   11.9216   15.5879   22.4881 C   0  0  0  0  0  0  0  0  0  0  0  0
   12.0613   14.1471   22.3697 C   0  0  0  0  0  0  0  0  0  0  0  0
   11.1317   13.4905   23.3345 C   0  0  0  0  0  0  0  0  0  0  0  0
   11.0346   13.8669   24.5046 O   0  0  0  0  0  0  0  0  0  0  0  0
   10.4224   12.4174   22.8273 N   0  0  0  0  0  0  0  0  0  0  0  0
    9.3530   11.9163   23.5680 C   0  0  0  0  0  0  0  0  0  0  0  0
    9.1339   10.5560   23.6961 C   0  0  0  0  0  0  0  0  0  0  0  0
    8.1465   10.1437   24.5869 C   0  0  0  0  0  0  0  0  0  0  0  0
    7.3797   11.1159   25.2497 C   0  0  0  0  0  0  0  0  0  0  0  0
    6.3038   10.8434   26.2427 C   0  0  0  0  0  0  0  0  0  0  0  0
    5.8769   11.7065   27.0089 O   0  0  0  0  0  0  0  0  0  0  0  0
    5.8137    9.5669   26.2650 N   0  0  0  0  0  0  0  0  0  0  0  0
    4.8696    9.2363   27.2330 N   0  0  0  0  0  0  0  0  0  0  0  0
    7.5405   12.4330   25.0577 N   0  0  0  0  0  0  0  0  0  0  0  0
    8.5158   12.8049   24.2360 C   0  0  0  0  0  0  0  0  0  0  0  0
  1  2  3  0
  2  3  1  0
  3  4  1  0
  4  5  2  0
  4  6  1  0
  6  7  1  0
  7  8  2  0
  8  9  1  0
  9 10  2  0
 10 11  1  0
 11 12  2  0
 11 13  1  0
 13 14  1  0
 10 15  1  0
 15 16  2  0
 16  7  1  0
M  END
>  <Crystalforms alias>  (108) 
nan

>  <original ID>  (108) 
ROIULVNAJXYDAA-UHFFFAOYSA-N

>  <alias>  (108) 
None

>  <distance_score>  (108) 
1.621537

>  <CanonSites upload name>  (108) 
nan

>  <CanonSites alias>  (108) 
nan

>  <ConformerSites alias>  (108) 
nan

>  <observation_longname>  (108) 
nan

>  <CrystalformSites alias>  (108) 
nan

>  <tags>  (108) 
[]

>  <ref_mols>  (108) 
A0556a,A0310a

>  <ref_pdb>  (108) 
A0310a

>  <Quatassemblies upload name>  (108) 
nan

>  <inchikey>  (108) 
ROIULVNAJXYDAA-UHFFFAOYSA-N

>  <Experiment code>  (108) 
nan

>  <Quatassemblies alias>  (108) 
nan

>  <Crystalforms upload name>  (108) 
nan

>  <Centroid res>  (108) 
nan

>  <ConformerSites upload name>  (108) 
nan

>  <energy_score>  (108) 
0.923053

>  <original SMILES>  (108) 
N#CCC(=O)Nc1ccc(C(=O)NN)nc1

>  <exports>  (108) 
nan

>  <CrystalformSites upload name>  (108) 
nan

>  <name>  (108) 
ROIULVNAJXYDAA-UHFFFAOYSA-N

>  <HIPPO ID>  (108) 
78825

$$$$
PVTHXGYEQAQPMN-GFCCVEGCSA-N
     RDKit          3D

 18 18  0  0  0  0  0  0  0  0999 V2000
   10.3474   11.1511   23.2931 C   0  0  0  0  0  0  0  0  0  0  0  0
   10.7596   12.4131   22.5393 C   0  0  0  0  0  0  0  0  0  0  0  0
   10.7715   13.8208   23.1054 C   0  0  2  0  0  0  0  0  0  0  0  0
   10.6590   14.7975   21.9198 C   0  0  0  0  0  0  0  0  0  0  0  0
   12.0101   14.1247   23.8127 C   0  0  0  0  0  0  0  0  0  0  0  0
   12.9858   14.3774   24.3811 N   0  0  0  0  0  0  0  0  0  0  0  0
    9.6034   13.8778   24.0574 C   0  0  0  0  0  0  0  0  0  0  0  0
    9.7061   14.2254   25.2322 O   0  0  0  0  0  0  0  0  0  0  0  0
    8.3909   13.4291   23.5056 N   0  0  0  0  0  0  0  0  0  0  0  0
    7.5674   12.7122   24.4093 C   0  0  0  0  0  0  0  0  0  0  0  0
    6.7672   13.3780   25.3189 C   0  0  0  0  0  0  0  0  0  0  0  0
    6.0984   12.6309   26.2766 C   0  0  0  0  0  0  0  0  0  0  0  0
    6.2578   11.2478   26.2588 C   0  0  0  0  0  0  0  0  0  0  0  0
    5.5940   10.4127   27.2593 C   0  0  0  0  0  0  0  0  0  0  0  0
    6.0949   10.4822   28.5272 N   0  0  0  0  0  0  0  0  0  0  0  0
    4.6328    9.7177   26.9763 O   0  0  0  0  0  0  0  0  0  0  0  0
    6.9987   10.5621   25.3802 N   0  0  0  0  0  0  0  0  0  0  0  0
    7.6005   11.3193   24.4632 C   0  0  0  0  0  0  0  0  0  0  0  0
  1  2  1  0
  2  3  1  0
  3  4  1  6
  3  5  1  0
  5  6  3  0
  3  7  1  0
  7  8  2  0
  7  9  1  0
  9 10  1  0
 10 11  2  0
 11 12  1  0
 12 13  2  0
 13 14  1  0
 14 15  1  0
 14 16  2  0
 13 17  1  0
 17 18  2  0
 18 10  1  0
M  END
>  <Crystalforms alias>  (109) 
nan

>  <original ID>  (109) 
PVTHXGYEQAQPMN-GFCCVEGCSA-N

>  <alias>  (109) 
None

>  <distance_score>  (109) 
2.109084

>  <CanonSites upload name>  (109) 
nan

>  <CanonSites alias>  (109) 
nan

>  <ConformerSites alias>  (109) 
nan

>  <observation_longname>  (109) 
nan

>  <CrystalformSites alias>  (109) 
nan

>  <tags>  (109) 
[]

>  <ref_mols>  (109) 
A0556a,A0310a

>  <ref_pdb>  (109) 
A0310a

>  <Quatassemblies upload name>  (109) 
nan

>  <inchikey>  (109) 
PVTHXGYEQAQPMN-GFCCVEGCSA-N

>  <Experiment code>  (109) 
nan

>  <Quatassemblies alias>  (109) 
nan

>  <Crystalforms upload name>  (109) 
nan

>  <Centroid res>  (109) 
nan

>  <ConformerSites upload name>  (109) 
nan

>  <energy_score>  (109) 
42.933355

>  <original SMILES>  (109) 
CC[C@](C)(C#N)C(=O)Nc1ccc(C(N)=O)nc1

>  <exports>  (109) 
nan

>  <CrystalformSites upload name>  (109) 
nan

>  <name>  (109) 
PVTHXGYEQAQPMN-GFCCVEGCSA-N

>  <HIPPO ID>  (109) 
79774

$$$$
PVTHXGYEQAQPMN-LBPRGKRZSA-N
     RDKit          3D

 18 18  0  0  0  0  0  0  0  0999 V2000
   10.4644   11.5326   22.7593 C   0  0  0  0  0  0  0  0  0  0  0  0
   11.1160   12.8865   22.3596 C   0  0  0  0  0  0  0  0  0  0  0  0
   11.3319   13.8981   23.4797 C   0  0  1  0  0  0  0  0  0  0  0  0
   12.5699   13.5127   24.2948 C   0  0  0  0  0  0  0  0  0  0  0  0
   11.5757   15.2465   22.9428 C   0  0  0  0  0  0  0  0  0  0  0  0
   11.7788   16.3168   22.5470 N   0  0  0  0  0  0  0  0  0  0  0  0
   10.1211   13.9541   24.4029 C   0  0  0  0  0  0  0  0  0  0  0  0
   10.2318   14.3144   25.5748 O   0  0  0  0  0  0  0  0  0  0  0  0
    8.8996   13.5515   23.8601 N   0  0  0  0  0  0  0  0  0  0  0  0
    8.0426   12.7928   24.6820 C   0  0  0  0  0  0  0  0  0  0  0  0
    7.4744   13.3872   25.7946 C   0  0  0  0  0  0  0  0  0  0  0  0
    6.6901   12.6216   26.6341 C   0  0  0  0  0  0  0  0  0  0  0  0
    6.5124   11.2826   26.3157 C   0  0  0  0  0  0  0  0  0  0  0  0
    5.7311   10.4283   27.2198 C   0  0  0  0  0  0  0  0  0  0  0  0
    5.1221    9.3576   26.6433 N   0  0  0  0  0  0  0  0  0  0  0  0
    5.6806   10.6439   28.4209 O   0  0  0  0  0  0  0  0  0  0  0  0
    7.0462   10.6542   25.2480 N   0  0  0  0  0  0  0  0  0  0  0  0
    7.7885   11.4371   24.4550 C   0  0  0  0  0  0  0  0  0  0  0  0
  1  2  1  0
  2  3  1  0
  3  4  1  1
  3  5  1  0
  5  6  3  0
  3  7  1  0
  7  8  2  0
  7  9  1  0
  9 10  1  0
 10 11  2  0
 11 12  1  0
 12 13  2  0
 13 14  1  0
 14 15  1  0
 14 16  2  0
 13 17  1  0
 17 18  2  0
 18 10  1  0
M  END
>  <Crystalforms alias>  (110) 
nan

>  <original ID>  (110) 
PVTHXGYEQAQPMN-LBPRGKRZSA-N

>  <alias>  (110) 
None

>  <distance_score>  (110) 
2.04239

>  <CanonSites upload name>  (110) 
nan

>  <CanonSites alias>  (110) 
nan

>  <ConformerSites alias>  (110) 
nan

>  <observation_longname>  (110) 
nan

>  <CrystalformSites alias>  (110) 
nan

>  <tags>  (110) 
[]

>  <ref_mols>  (110) 
A0556a,A0310a

>  <ref_pdb>  (110) 
A0310a

>  <Quatassemblies upload name>  (110) 
nan

>  <inchikey>  (110) 
PVTHXGYEQAQPMN-LBPRGKRZSA-N

>  <Experiment code>  (110) 
nan

>  <Quatassemblies alias>  (110) 
nan

>  <Crystalforms upload name>  (110) 
nan

>  <Centroid res>  (110) 
nan

>  <ConformerSites upload name>  (110) 
nan

>  <energy_score>  (110) 
14.997717

>  <original SMILES>  (110) 
CC[C@@](C)(C#N)C(=O)Nc1ccc(C(N)=O)nc1

>  <exports>  (110) 
nan

>  <CrystalformSites upload name>  (110) 
nan

>  <name>  (110) 
PVTHXGYEQAQPMN-LBPRGKRZSA-N

>  <HIPPO ID>  (110) 
79775

$$$$
ZEQROIUDKJJANS-QMMMGPOBSA-N
     RDKit          3D

 18 18  0  0  0  0  0  0  0  0999 V2000
    6.7083   13.9259   23.5688 C   0  0  0  0  0  0  0  0  0  0  0  0
    7.7929   13.5668   22.5360 C   0  0  0  0  0  0  0  0  0  0  0  0
    9.0608   14.4021   22.6712 C   0  0  0  0  0  0  0  0  0  0  0  0
   10.4865   13.8654   22.3868 C   0  0  1  0  0  0  0  0  0  0  0  0
   11.4161   15.0090   22.4829 C   0  0  0  0  0  0  0  0  0  0  0  0
   12.0264   15.9898   22.5866 N   0  0  0  0  0  0  0  0  0  0  0  0
   10.8275   12.8598   23.4643 C   0  0  0  0  0  0  0  0  0  0  0  0
   11.3777   13.1815   24.5192 O   0  0  0  0  0  0  0  0  0  0  0  0
   10.2343   11.6150   23.3143 N   0  0  0  0  0  0  0  0  0  0  0  0
    9.2235   11.2087   24.2203 C   0  0  0  0  0  0  0  0  0  0  0  0
    8.6904   12.1456   25.1068 C   0  0  0  0  0  0  0  0  0  0  0  0
    7.5545   11.8956   25.8434 C   0  0  0  0  0  0  0  0  0  0  0  0
    6.9865   10.6581   25.7077 C   0  0  0  0  0  0  0  0  0  0  0  0
    5.6865   10.4739   26.4039 C   0  0  0  0  0  0  0  0  0  0  0  0
    5.1402    9.2385   26.4144 N   0  0  0  0  0  0  0  0  0  0  0  0
    5.1023   11.3913   26.9655 O   0  0  0  0  0  0  0  0  0  0  0  0
    7.5278    9.6566   24.9549 N   0  0  0  0  0  0  0  0  0  0  0  0
    8.6223    9.9640   24.1995 C   0  0  0  0  0  0  0  0  0  0  0  0
  1  2  1  0
  2  3  1  0
  4  3  1  1
  4  5  1  0
  5  6  3  0
  4  7  1  0
  7  8  2  0
  7  9  1  0
  9 10  1  0
 10 11  2  0
 11 12  1  0
 12 13  2  0
 13 14  1  0
 14 15  1  0
 14 16  2  0
 13 17  1  0
 17 18  2  0
 18 10  1  0
M  END
>  <Crystalforms alias>  (111) 
nan

>  <original ID>  (111) 
ZEQROIUDKJJANS-QMMMGPOBSA-N

>  <alias>  (111) 
None

>  <distance_score>  (111) 
2.265094

>  <CanonSites upload name>  (111) 
nan

>  <CanonSites alias>  (111) 
nan

>  <ConformerSites alias>  (111) 
nan

>  <observation_longname>  (111) 
nan

>  <CrystalformSites alias>  (111) 
nan

>  <tags>  (111) 
[]

>  <ref_mols>  (111) 
A0556a,A0310a

>  <ref_pdb>  (111) 
A0310a

>  <Quatassemblies upload name>  (111) 
nan

>  <inchikey>  (111) 
ZEQROIUDKJJANS-QMMMGPOBSA-N

>  <Experiment code>  (111) 
nan

>  <Quatassemblies alias>  (111) 
nan

>  <Crystalforms upload name>  (111) 
nan

>  <Centroid res>  (111) 
nan

>  <ConformerSites upload name>  (111) 
nan

>  <energy_score>  (111) 
4.009264

>  <original SMILES>  (111) 
CCC[C@@H](C#N)C(=O)Nc1ccc(C(N)=O)nc1

>  <exports>  (111) 
nan

>  <CrystalformSites upload name>  (111) 
nan

>  <name>  (111) 
ZEQROIUDKJJANS-QMMMGPOBSA-N

>  <HIPPO ID>  (111) 
79971

$$$$
ZEQROIUDKJJANS-QMMMGPOBSA-N
     RDKit          3D

 18 18  0  0  0  0  0  0  0  0999 V2000
    9.7467    8.9955   22.6315 C   0  0  0  0  0  0  0  0  0  0  0  0
   10.2440   10.0642   23.5721 C   0  0  0  0  0  0  0  0  0  0  0  0
   10.2492   11.4810   22.9750 C   0  0  0  0  0  0  0  0  0  0  0  0
   10.6521   12.7461   23.7563 C   0  0  1  0  0  0  0  0  0  0  0  0
   11.9826   13.3477   23.6227 C   0  0  0  0  0  0  0  0  0  0  0  0
   12.9537   13.9710   23.7316 N   0  0  0  0  0  0  0  0  0  0  0  0
    9.7079   13.7988   23.2847 C   0  0  0  0  0  0  0  0  0  0  0  0
   10.0587   14.7124   22.5458 O   0  0  0  0  0  0  0  0  0  0  0  0
    8.4037   13.7888   23.6363 N   0  0  0  0  0  0  0  0  0  0  0  0
    7.6476   13.0115   24.5059 C   0  0  0  0  0  0  0  0  0  0  0  0
    6.3657   13.4565   24.7683 C   0  0  0  0  0  0  0  0  0  0  0  0
    5.5499   12.7217   25.6125 C   0  0  0  0  0  0  0  0  0  0  0  0
    6.0274   11.5092   26.0893 C   0  0  0  0  0  0  0  0  0  0  0  0
    5.1343   10.5926   26.8059 C   0  0  0  0  0  0  0  0  0  0  0  0
    4.3015   11.1416   27.7343 N   0  0  0  0  0  0  0  0  0  0  0  0
    5.0905    9.3969   26.5794 O   0  0  0  0  0  0  0  0  0  0  0  0
    7.2755   11.0656   25.9075 N   0  0  0  0  0  0  0  0  0  0  0  0
    8.0445   11.8608   25.1585 C   0  0  0  0  0  0  0  0  0  0  0  0
  1  2  1  0
  2  3  1  0
  4  3  1  6
  4  5  1  0
  5  6  3  0
  4  7  1  0
  7  8  2  0
  7  9  1  0
  9 10  1  0
 10 11  2  0
 11 12  1  0
 12 13  2  0
 13 14  1  0
 14 15  1  0
 14 16  2  0
 13 17  1  0
 17 18  2  0
 18 10  1  0
M  END
>  <Crystalforms alias>  (112) 
nan

>  <original ID>  (112) 
ZEQROIUDKJJANS-QMMMGPOBSA-N

>  <alias>  (112) 
None

>  <distance_score>  (112) 
2.402209

>  <CanonSites upload name>  (112) 
nan

>  <CanonSites alias>  (112) 
nan

>  <ConformerSites alias>  (112) 
nan

>  <observation_longname>  (112) 
nan

>  <CrystalformSites alias>  (112) 
nan

>  <tags>  (112) 
[]

>  <ref_mols>  (112) 
A0556a,A0310a

>  <ref_pdb>  (112) 
A0310a

>  <Quatassemblies upload name>  (112) 
nan

>  <inchikey>  (112) 
ZEQROIUDKJJANS-QMMMGPOBSA-N

>  <Experiment code>  (112) 
nan

>  <Quatassemblies alias>  (112) 
nan

>  <Crystalforms upload name>  (112) 
nan

>  <Centroid res>  (112) 
nan

>  <ConformerSites upload name>  (112) 
nan

>  <energy_score>  (112) 
-274.686193

>  <original SMILES>  (112) 
CCC[C@@H](C#N)C(=O)Nc1ccc(C(N)=O)nc1

>  <exports>  (112) 
nan

>  <CrystalformSites upload name>  (112) 
nan

>  <name>  (112) 
ZEQROIUDKJJANS-QMMMGPOBSA-N

>  <HIPPO ID>  (112) 
79972

$$$$
ASVUAGINRBGDLA-GFCCVEGCSA-N
     RDKit          3D

 19 19  0  0  0  0  0  0  0  0999 V2000
    9.6335   14.7589   26.1512 C   0  0  0  0  0  0  0  0  0  0  0  0
   11.0852   14.8189   25.5400 C   0  0  0  0  0  0  0  0  0  0  0  0
   11.3576   14.3977   24.0407 C   0  0  2  0  0  0  0  0  0  0  0  0
   12.6451   13.6018   23.8625 C   0  0  0  0  0  0  0  0  0  0  0  0
   11.4936   15.5384   23.1487 C   0  0  0  0  0  0  0  0  0  0  0  0
   11.6807   16.4745   22.4936 N   0  0  0  0  0  0  0  0  0  0  0  0
   10.2563   13.4447   23.8086 C   0  0  0  0  0  0  0  0  0  0  0  0
   10.2763   12.4710   24.5697 O   0  0  0  0  0  0  0  0  0  0  0  0
    9.1810   13.8319   23.0368 N   0  0  0  0  0  0  0  0  0  0  0  0
    7.8422   13.6349   23.5425 N   0  0  0  0  0  0  0  0  0  0  0  0
    7.4865   12.5570   24.3474 C   0  0  0  0  0  0  0  0  0  0  0  0
    6.7319   12.7116   25.3027 O   0  0  0  0  0  0  0  0  0  0  0  0
    8.0662   11.2510   24.0033 C   0  0  0  0  0  0  0  0  0  0  0  0
    7.9051   10.1348   24.7596 C   0  0  0  0  0  0  0  0  0  0  0  0
    8.7035    9.0770   24.3588 C   0  0  0  0  0  0  0  0  0  0  0  0
    9.7370    9.2028   23.4423 C   0  0  0  0  0  0  0  0  0  0  0  0
   10.7120    8.2496   23.2350 N   0  0  0  0  0  0  0  0  0  0  0  0
    9.6713   10.2932   22.6629 C   0  0  0  0  0  0  0  0  0  0  0  0
    8.8095   11.2752   22.8779 N   0  0  0  0  0  0  0  0  0  0  0  0
  1  2  1  0
  2  3  1  0
  3  4  1  1
  3  5  1  0
  5  6  3  0
  3  7  1  0
  7  8  2  0
  7  9  1  0
  9 10  1  0
 10 11  1  0
 11 12  2  0
 11 13  1  0
 13 14  2  0
 14 15  1  0
 15 16  2  0
 16 17  1  0
 16 18  1  0
 18 19  2  0
 19 13  1  0
M  END
>  <Crystalforms alias>  (113) 
nan

>  <original ID>  (113) 
ASVUAGINRBGDLA-GFCCVEGCSA-N

>  <alias>  (113) 
None

>  <distance_score>  (113) 
2.61975

>  <CanonSites upload name>  (113) 
nan

>  <CanonSites alias>  (113) 
nan

>  <ConformerSites alias>  (113) 
nan

>  <observation_longname>  (113) 
nan

>  <CrystalformSites alias>  (113) 
nan

>  <tags>  (113) 
[]

>  <ref_mols>  (113) 
A0556a,A0310a

>  <ref_pdb>  (113) 
A0310a

>  <Quatassemblies upload name>  (113) 
nan

>  <inchikey>  (113) 
ASVUAGINRBGDLA-GFCCVEGCSA-N

>  <Experiment code>  (113) 
nan

>  <Quatassemblies alias>  (113) 
nan

>  <Crystalforms upload name>  (113) 
nan

>  <Centroid res>  (113) 
nan

>  <ConformerSites upload name>  (113) 
nan

>  <energy_score>  (113) 
32.788403

>  <original SMILES>  (113) 
CC[C@](C)(C#N)C(=O)NNC(=O)c1ccc(N)cn1

>  <exports>  (113) 
nan

>  <CrystalformSites upload name>  (113) 
nan

>  <name>  (113) 
ASVUAGINRBGDLA-GFCCVEGCSA-N

>  <HIPPO ID>  (113) 
80766

$$$$
ZRUZUFJCQKXUMZ-GFCCVEGCSA-N
     RDKit          3D

 19 19  0  0  0  0  0  0  0  0999 V2000
   13.3248   13.8085   24.7671 C   0  0  0  0  0  0  0  0  0  0  0  0
   12.5887   13.2903   23.5563 C   0  0  0  0  0  0  0  0  0  0  0  0
   11.6745   14.2288   22.7561 C   0  0  2  0  0  0  0  0  0  0  0  0
   11.7880   14.0860   21.2362 C   0  0  0  0  0  0  0  0  0  0  0  0
   11.8181   15.6587   22.9946 C   0  0  0  0  0  0  0  0  0  0  0  0
   11.8058   16.8158   23.0206 N   0  0  0  0  0  0  0  0  0  0  0  0
   10.3407   13.8091   23.3078 C   0  0  0  0  0  0  0  0  0  0  0  0
    9.9223   14.3248   24.3498 O   0  0  0  0  0  0  0  0  0  0  0  0
    9.7853   12.6456   22.7725 N   0  0  0  0  0  0  0  0  0  0  0  0
    8.7371   12.0882   23.5129 C   0  0  0  0  0  0  0  0  0  0  0  0
    8.7775   10.7695   23.9370 C   0  0  0  0  0  0  0  0  0  0  0  0
    7.9073   10.4118   24.9622 C   0  0  0  0  0  0  0  0  0  0  0  0
    7.0324   11.3817   25.4784 C   0  0  0  0  0  0  0  0  0  0  0  0
    6.2982   11.2522   26.7671 C   0  0  0  0  0  0  0  0  0  0  0  0
    6.0887   12.2075   27.5098 O   0  0  0  0  0  0  0  0  0  0  0  0
    5.8833   10.0167   27.1752 N   0  0  0  0  0  0  0  0  0  0  0  0
    5.2465    9.2248   26.2294 N   0  0  0  0  0  0  0  0  0  0  0  0
    6.8857   12.6029   24.9488 N   0  0  0  0  0  0  0  0  0  0  0  0
    7.7277   12.9290   23.9772 C   0  0  0  0  0  0  0  0  0  0  0  0
  1  2  1  0
  2  3  1  0
  3  4  1  6
  3  5  1  0
  5  6  3  0
  3  7  1  0
  7  8  2  0
  7  9  1  0
  9 10  1  0
 10 11  2  0
 11 12  1  0
 12 13  2  0
 13 14  1  0
 14 15  2  0
 14 16  1  0
 16 17  1  0
 13 18  1  0
 18 19  2  0
 19 10  1  0
M  END
>  <Crystalforms alias>  (114) 
nan

>  <original ID>  (114) 
ZRUZUFJCQKXUMZ-GFCCVEGCSA-N

>  <alias>  (114) 
None

>  <distance_score>  (114) 
1.754286

>  <CanonSites upload name>  (114) 
nan

>  <CanonSites alias>  (114) 
nan

>  <ConformerSites alias>  (114) 
nan

>  <observation_longname>  (114) 
nan

>  <CrystalformSites alias>  (114) 
nan

>  <tags>  (114) 
[]

>  <ref_mols>  (114) 
A0556a,A0310a

>  <ref_pdb>  (114) 
A0310a

>  <Quatassemblies upload name>  (114) 
nan

>  <inchikey>  (114) 
ZRUZUFJCQKXUMZ-GFCCVEGCSA-N

>  <Experiment code>  (114) 
nan

>  <Quatassemblies alias>  (114) 
nan

>  <Crystalforms upload name>  (114) 
nan

>  <Centroid res>  (114) 
nan

>  <ConformerSites upload name>  (114) 
nan

>  <energy_score>  (114) 
26.674078

>  <original SMILES>  (114) 
CC[C@](C)(C#N)C(=O)Nc1ccc(C(=O)NN)nc1

>  <exports>  (114) 
nan

>  <CrystalformSites upload name>  (114) 
nan

>  <name>  (114) 
ZRUZUFJCQKXUMZ-GFCCVEGCSA-N

>  <HIPPO ID>  (114) 
80898

$$$$
ZRUZUFJCQKXUMZ-LBPRGKRZSA-N
     RDKit          3D

 19 19  0  0  0  0  0  0  0  0999 V2000
   11.5808   14.3983   19.8360 C   0  0  0  0  0  0  0  0  0  0  0  0
   10.5918   14.5037   20.9793 C   0  0  0  0  0  0  0  0  0  0  0  0
   11.2453   14.4970   22.3768 C   0  0  1  0  0  0  0  0  0  0  0  0
   12.5687   13.8110   22.4899 C   0  0  0  0  0  0  0  0  0  0  0  0
   11.5026   15.8847   22.7511 C   0  0  0  0  0  0  0  0  0  0  0  0
   11.7166   17.0042   22.9506 N   0  0  0  0  0  0  0  0  0  0  0  0
   10.4046   13.7927   23.3982 C   0  0  0  0  0  0  0  0  0  0  0  0
   10.2415   14.2392   24.5360 O   0  0  0  0  0  0  0  0  0  0  0  0
    9.9085   12.5497   23.0107 N   0  0  0  0  0  0  0  0  0  0  0  0
    8.8477   12.0265   23.7457 C   0  0  0  0  0  0  0  0  0  0  0  0
    8.7622   10.6848   24.0668 C   0  0  0  0  0  0  0  0  0  0  0  0
    7.8233   10.3288   25.0321 C   0  0  0  0  0  0  0  0  0  0  0  0
    6.9924   11.3214   25.5779 C   0  0  0  0  0  0  0  0  0  0  0  0
    6.1856   11.1787   26.8225 C   0  0  0  0  0  0  0  0  0  0  0  0
    5.9100   12.1335   27.5455 O   0  0  0  0  0  0  0  0  0  0  0  0
    5.7911    9.9360   27.2277 N   0  0  0  0  0  0  0  0  0  0  0  0
    5.1347    9.1524   26.2839 N   0  0  0  0  0  0  0  0  0  0  0  0
    6.9686   12.5836   25.1332 N   0  0  0  0  0  0  0  0  0  0  0  0
    7.8863   12.9086   24.2354 C   0  0  0  0  0  0  0  0  0  0  0  0
  1  2  1  0
  2  3  1  0
  3  4  1  6
  3  5  1  0
  5  6  3  0
  3  7  1  0
  7  8  2  0
  7  9  1  0
  9 10  1  0
 10 11  2  0
 11 12  1  0
 12 13  2  0
 13 14  1  0
 14 15  2  0
 14 16  1  0
 16 17  1  0
 13 18  1  0
 18 19  2  0
 19 10  1  0
M  END
>  <Crystalforms alias>  (115) 
nan

>  <original ID>  (115) 
ZRUZUFJCQKXUMZ-LBPRGKRZSA-N

>  <alias>  (115) 
None

>  <distance_score>  (115) 
1.771874

>  <CanonSites upload name>  (115) 
nan

>  <CanonSites alias>  (115) 
nan

>  <ConformerSites alias>  (115) 
nan

>  <observation_longname>  (115) 
nan

>  <CrystalformSites alias>  (115) 
nan

>  <tags>  (115) 
[]

>  <ref_mols>  (115) 
A0556a,A0310a

>  <ref_pdb>  (115) 
A0310a

>  <Quatassemblies upload name>  (115) 
nan

>  <inchikey>  (115) 
ZRUZUFJCQKXUMZ-LBPRGKRZSA-N

>  <Experiment code>  (115) 
nan

>  <Quatassemblies alias>  (115) 
nan

>  <Crystalforms upload name>  (115) 
nan

>  <Centroid res>  (115) 
nan

>  <ConformerSites upload name>  (115) 
nan

>  <energy_score>  (115) 
22.696377

>  <original SMILES>  (115) 
CC[C@@](C)(C#N)C(=O)Nc1ccc(C(=O)NN)nc1

>  <exports>  (115) 
nan

>  <CrystalformSites upload name>  (115) 
nan

>  <name>  (115) 
ZRUZUFJCQKXUMZ-LBPRGKRZSA-N

>  <HIPPO ID>  (115) 
80899

$$$$
PIZHVVCBGZMSKN-MRVPVSSYSA-N
     RDKit          3D

 19 19  0  0  0  0  0  0  0  0999 V2000
   13.2281   15.9285   21.3489 C   0  0  0  0  0  0  0  0  0  0  0  0
   12.5095   14.7477   20.7408 C   0  0  0  0  0  0  0  0  0  0  0  0
   12.2484   13.7369   21.8299 C   0  0  0  0  0  0  0  0  0  0  0  0
   11.0505   14.1351   22.6174 C   0  0  2  0  0  0  0  0  0  0  0  0
   11.3164   15.3557   23.3365 C   0  0  0  0  0  0  0  0  0  0  0  0
   11.5383   16.3698   23.8386 N   0  0  0  0  0  0  0  0  0  0  0  0
   10.7775   13.0849   23.6175 C   0  0  0  0  0  0  0  0  0  0  0  0
   10.9280   13.2377   24.8275 O   0  0  0  0  0  0  0  0  0  0  0  0
   10.1782   11.9782   23.0685 N   0  0  0  0  0  0  0  0  0  0  0  0
    9.1237   11.4454   23.7806 C   0  0  0  0  0  0  0  0  0  0  0  0
    8.9079   10.0887   23.8092 C   0  0  0  0  0  0  0  0  0  0  0  0
    7.8932    9.6558   24.6351 C   0  0  0  0  0  0  0  0  0  0  0  0
    7.1228   10.5977   25.3211 C   0  0  0  0  0  0  0  0  0  0  0  0
    6.0951   10.2118   26.2921 C   0  0  0  0  0  0  0  0  0  0  0  0
    5.2036    9.4088   26.0869 O   0  0  0  0  0  0  0  0  0  0  0  0
    6.3070   10.7981   27.5151 N   0  0  0  0  0  0  0  0  0  0  0  0
    6.1411    9.9369   28.6090 N   0  0  0  0  0  0  0  0  0  0  0  0
    7.3110   11.9240   25.2909 N   0  0  0  0  0  0  0  0  0  0  0  0
    8.2976   12.3182   24.5036 C   0  0  0  0  0  0  0  0  0  0  0  0
  1  2  1  0
  2  3  1  0
  4  3  1  1
  4  5  1  0
  5  6  3  0
  4  7  1  0
  7  8  2  0
  7  9  1  0
  9 10  1  0
 10 11  2  0
 11 12  1  0
 12 13  2  0
 13 14  1  0
 14 15  2  0
 14 16  1  0
 16 17  1  0
 13 18  1  0
 18 19  2  0
 19 10  1  0
M  END
>  <Crystalforms alias>  (116) 
nan

>  <original ID>  (116) 
PIZHVVCBGZMSKN-MRVPVSSYSA-N

>  <alias>  (116) 
None

>  <distance_score>  (116) 
2.079108

>  <CanonSites upload name>  (116) 
nan

>  <CanonSites alias>  (116) 
nan

>  <ConformerSites alias>  (116) 
nan

>  <observation_longname>  (116) 
nan

>  <CrystalformSites alias>  (116) 
nan

>  <tags>  (116) 
[]

>  <ref_mols>  (116) 
A0556a,A0310a

>  <ref_pdb>  (116) 
A0310a

>  <Quatassemblies upload name>  (116) 
nan

>  <inchikey>  (116) 
PIZHVVCBGZMSKN-MRVPVSSYSA-N

>  <Experiment code>  (116) 
nan

>  <Quatassemblies alias>  (116) 
nan

>  <Crystalforms upload name>  (116) 
nan

>  <Centroid res>  (116) 
nan

>  <ConformerSites upload name>  (116) 
nan

>  <energy_score>  (116) 
6.183923

>  <original SMILES>  (116) 
CCC[C@H](C#N)C(=O)Nc1ccc(C(=O)NN)nc1

>  <exports>  (116) 
nan

>  <CrystalformSites upload name>  (116) 
nan

>  <name>  (116) 
PIZHVVCBGZMSKN-MRVPVSSYSA-N

>  <HIPPO ID>  (116) 
80915

$$$$
PIZHVVCBGZMSKN-QMMMGPOBSA-N
     RDKit          3D

 19 19  0  0  0  0  0  0  0  0999 V2000
   12.1694   14.4595   19.6192 C   0  0  0  0  0  0  0  0  0  0  0  0
   10.7363   14.7099   19.9697 C   0  0  0  0  0  0  0  0  0  0  0  0
   10.3408   14.3127   21.3738 C   0  0  0  0  0  0  0  0  0  0  0  0
   11.5086   14.2120   22.3671 C   0  0  1  0  0  0  0  0  0  0  0  0
   11.8058   15.5774   22.7723 C   0  0  0  0  0  0  0  0  0  0  0  0
   11.8654   16.7142   22.9784 N   0  0  0  0  0  0  0  0  0  0  0  0
   11.0806   13.3904   23.5406 C   0  0  0  0  0  0  0  0  0  0  0  0
   11.1585   13.7636   24.7095 O   0  0  0  0  0  0  0  0  0  0  0  0
   10.5269   12.1707   23.1905 N   0  0  0  0  0  0  0  0  0  0  0  0
    9.3842   11.7369   23.8573 C   0  0  0  0  0  0  0  0  0  0  0  0
    9.0547   10.3968   23.9003 C   0  0  0  0  0  0  0  0  0  0  0  0
    7.9894   10.0287   24.7124 C   0  0  0  0  0  0  0  0  0  0  0  0
    7.2529   11.0246   25.3721 C   0  0  0  0  0  0  0  0  0  0  0  0
    6.1360   10.7904   26.3273 C   0  0  0  0  0  0  0  0  0  0  0  0
    5.6782   11.6869   27.0362 O   0  0  0  0  0  0  0  0  0  0  0  0
    5.6658    9.5092   26.4120 N   0  0  0  0  0  0  0  0  0  0  0  0
    4.7398    9.2089   27.4041 N   0  0  0  0  0  0  0  0  0  0  0  0
    7.5179   12.3318   25.2466 N   0  0  0  0  0  0  0  0  0  0  0  0
    8.5692   12.6601   24.5080 C   0  0  0  0  0  0  0  0  0  0  0  0
  1  2  1  0
  2  3  1  0
  4  3  1  6
  4  5  1  0
  5  6  3  0
  4  7  1  0
  7  8  2  0
  7  9  1  0
  9 10  1  0
 10 11  2  0
 11 12  1  0
 12 13  2  0
 13 14  1  0
 14 15  2  0
 14 16  1  0
 16 17  1  0
 13 18  1  0
 18 19  2  0
 19 10  1  0
M  END
>  <Crystalforms alias>  (117) 
nan

>  <original ID>  (117) 
PIZHVVCBGZMSKN-QMMMGPOBSA-N

>  <alias>  (117) 
None

>  <distance_score>  (117) 
2.046087

>  <CanonSites upload name>  (117) 
nan

>  <CanonSites alias>  (117) 
nan

>  <ConformerSites alias>  (117) 
nan

>  <observation_longname>  (117) 
nan

>  <CrystalformSites alias>  (117) 
nan

>  <tags>  (117) 
[]

>  <ref_mols>  (117) 
A0556a,A0310a

>  <ref_pdb>  (117) 
A0310a

>  <Quatassemblies upload name>  (117) 
nan

>  <inchikey>  (117) 
PIZHVVCBGZMSKN-QMMMGPOBSA-N

>  <Experiment code>  (117) 
nan

>  <Quatassemblies alias>  (117) 
nan

>  <Crystalforms upload name>  (117) 
nan

>  <Centroid res>  (117) 
nan

>  <ConformerSites upload name>  (117) 
nan

>  <energy_score>  (117) 
0.338411

>  <original SMILES>  (117) 
CCC[C@@H](C#N)C(=O)Nc1ccc(C(=O)NN)nc1

>  <exports>  (117) 
nan

>  <CrystalformSites upload name>  (117) 
nan

>  <name>  (117) 
PIZHVVCBGZMSKN-QMMMGPOBSA-N

>  <HIPPO ID>  (117) 
80916

$$$$
AJVIKZPIPBHAKY-UHFFFAOYSA-N
     RDKit          3D

 17 17  0  0  0  0  0  0  0  0999 V2000
    7.1804   14.5016   25.9667 C   0  0  0  0  0  0  0  0  0  0  0  0
    6.4327   13.2510   25.5297 C   0  0  0  0  0  0  0  0  0  0  0  0
    6.8695   12.1584   26.3555 O   0  0  0  0  0  0  0  0  0  0  0  0
    6.8526   10.9185   25.7793 C   0  0  0  0  0  0  0  0  0  0  0  0
    6.0116   10.0862   26.0834 O   0  0  0  0  0  0  0  0  0  0  0  0
    7.9813   10.7053   24.8863 C   0  0  0  0  0  0  0  0  0  0  0  0
    8.8941   11.7050   24.5472 C   0  0  0  0  0  0  0  0  0  0  0  0
    9.6717   11.2278   23.5428 C   0  0  0  0  0  0  0  0  0  0  0  0
   10.5750   11.9467   22.7942 N   0  0  0  0  0  0  0  0  0  0  0  0
   10.9813   13.2183   23.1979 C   0  0  0  0  0  0  0  0  0  0  0  0
   10.8498   13.6617   24.3393 O   0  0  0  0  0  0  0  0  0  0  0  0
   11.6195   14.0159   22.0913 C   0  0  0  0  0  0  0  0  0  0  0  0
   11.7672   15.4110   22.4859 C   0  0  0  0  0  0  0  0  0  0  0  0
   11.8143   16.5330   22.7744 N   0  0  0  0  0  0  0  0  0  0  0  0
    9.3294    9.9033   23.4536 N   0  0  0  0  0  0  0  0  0  0  0  0
    9.9396    8.8774   22.6606 C   0  0  0  0  0  0  0  0  0  0  0  0
    8.2923    9.5653   24.2584 N   0  0  0  0  0  0  0  0  0  0  0  0
  1  2  1  0
  2  3  1  0
  3  4  1  0
  4  5  2  0
  4  6  1  0
  6  7  1  0
  7  8  2  0
  8  9  1  0
  9 10  1  0
 10 11  2  0
 10 12  1  0
 12 13  1  0
 13 14  3  0
  8 15  1  0
 15 16  1  0
 15 17  1  0
 17  6  2  0
M  END
>  <Crystalforms alias>  (118) 
nan

>  <original ID>  (118) 
AJVIKZPIPBHAKY-UHFFFAOYSA-N

>  <alias>  (118) 
None

>  <distance_score>  (118) 
1.567163

>  <CanonSites upload name>  (118) 
nan

>  <CanonSites alias>  (118) 
nan

>  <ConformerSites alias>  (118) 
nan

>  <observation_longname>  (118) 
nan

>  <CrystalformSites alias>  (118) 
nan

>  <tags>  (118) 
['Syndirella scaffold']

>  <ref_mols>  (118) 
A0556a,A0310a

>  <ref_pdb>  (118) 
A0310a

>  <Quatassemblies upload name>  (118) 
nan

>  <inchikey>  (118) 
AJVIKZPIPBHAKY-UHFFFAOYSA-N

>  <Experiment code>  (118) 
nan

>  <Quatassemblies alias>  (118) 
nan

>  <Crystalforms upload name>  (118) 
nan

>  <Centroid res>  (118) 
nan

>  <ConformerSites upload name>  (118) 
nan

>  <energy_score>  (118) 
-2.139554

>  <original SMILES>  (118) 
CCOC(=O)c1cc(NC(=O)CC#N)n(C)n1

>  <exports>  (118) 
nan

>  <CrystalformSites upload name>  (118) 
nan

>  <name>  (118) 
AJVIKZPIPBHAKY-UHFFFAOYSA-N

>  <HIPPO ID>  (118) 
85157

$$$$
MEHOTWFDSZAVOA-SECBINFHSA-N
     RDKit          3D

 20 20  0  0  0  0  0  0  0  0999 V2000
   14.3327   13.2367   25.4415 C   0  0  0  0  0  0  0  0  0  0  0  0
   13.4996   13.5000   24.2251 C   0  0  0  0  0  0  0  0  0  0  0  0
   12.0477   13.7882   24.3357 C   0  0  0  0  0  0  0  0  0  0  0  0
   11.5495   13.9946   22.8859 C   0  0  2  0  0  0  0  0  0  0  0  0
   11.5959   15.4160   22.5672 C   0  0  0  0  0  0  0  0  0  0  0  0
   11.7457   16.5518   22.3924 N   0  0  0  0  0  0  0  0  0  0  0  0
   10.1917   13.3920   22.8987 C   0  0  0  0  0  0  0  0  0  0  0  0
    9.2109   14.0356   23.2605 O   0  0  0  0  0  0  0  0  0  0  0  0
   10.2349   12.0018   22.7329 N   0  0  0  0  0  0  0  0  0  0  0  0
    9.4379   11.2185   23.5312 C   0  0  0  0  0  0  0  0  0  0  0  0
    8.6947   11.6549   24.5789 C   0  0  0  0  0  0  0  0  0  0  0  0
    7.8981   10.5840   24.9865 C   0  0  0  0  0  0  0  0  0  0  0  0
    6.7693   10.8024   25.8670 C   0  0  0  0  0  0  0  0  0  0  0  0
    5.8429   10.0383   26.0853 O   0  0  0  0  0  0  0  0  0  0  0  0
    6.8413   12.0746   26.3583 O   0  0  0  0  0  0  0  0  0  0  0  0
    5.6893   12.8786   26.1161 C   0  0  0  0  0  0  0  0  0  0  0  0
    5.9968   13.8881   25.0293 C   0  0  0  0  0  0  0  0  0  0  0  0
    8.2818    9.4523   24.3850 N   0  0  0  0  0  0  0  0  0  0  0  0
    9.2499    9.8602   23.5212 N   0  0  0  0  0  0  0  0  0  0  0  0
    9.8963    8.8796   22.6997 C   0  0  0  0  0  0  0  0  0  0  0  0
  1  2  1  0
  2  3  1  0
  4  3  1  1
  4  5  1  0
  5  6  3  0
  4  7  1  0
  7  8  2  0
  7  9  1  0
  9 10  1  0
 10 11  2  0
 11 12  1  0
 12 13  1  0
 13 14  2  0
 13 15  1  0
 15 16  1  0
 16 17  1  0
 12 18  2  0
 18 19  1  0
 19 20  1  0
 19 10  1  0
M  END
>  <Crystalforms alias>  (119) 
nan

>  <original ID>  (119) 
MEHOTWFDSZAVOA-SECBINFHSA-N

>  <alias>  (119) 
None

>  <distance_score>  (119) 
1.852411

>  <CanonSites upload name>  (119) 
nan

>  <CanonSites alias>  (119) 
nan

>  <ConformerSites alias>  (119) 
nan

>  <observation_longname>  (119) 
nan

>  <CrystalformSites alias>  (119) 
nan

>  <tags>  (119) 
[]

>  <ref_mols>  (119) 
A0556a,A0310a

>  <ref_pdb>  (119) 
A0310a

>  <Quatassemblies upload name>  (119) 
nan

>  <inchikey>  (119) 
MEHOTWFDSZAVOA-SECBINFHSA-N

>  <Experiment code>  (119) 
nan

>  <Quatassemblies alias>  (119) 
nan

>  <Crystalforms upload name>  (119) 
nan

>  <Centroid res>  (119) 
nan

>  <ConformerSites upload name>  (119) 
nan

>  <energy_score>  (119) 
-2.582362

>  <original SMILES>  (119) 
CCC[C@H](C#N)C(=O)Nc1cc(C(=O)OCC)nn1C

>  <exports>  (119) 
nan

>  <CrystalformSites upload name>  (119) 
nan

>  <name>  (119) 
MEHOTWFDSZAVOA-SECBINFHSA-N

>  <HIPPO ID>  (119) 
85563

$$$$
MEHOTWFDSZAVOA-VIFPVBQESA-N
     RDKit          3D

 20 20  0  0  0  0  0  0  0  0999 V2000
   11.2328   14.7319   18.9929 C   0  0  0  0  0  0  0  0  0  0  0  0
   11.6221   15.0604   20.4161 C   0  0  0  0  0  0  0  0  0  0  0  0
   11.5475   13.8723   21.3185 C   0  0  0  0  0  0  0  0  0  0  0  0
   11.9470   14.0445   22.7685 C   0  0  1  0  0  0  0  0  0  0  0  0
   11.8231   15.4436   23.1529 C   0  0  0  0  0  0  0  0  0  0  0  0
   11.6928   16.5842   23.3028 N   0  0  0  0  0  0  0  0  0  0  0  0
   11.0785   13.1782   23.6521 C   0  0  0  0  0  0  0  0  0  0  0  0
   10.8151   13.5314   24.8045 O   0  0  0  0  0  0  0  0  0  0  0  0
   10.6826   11.9514   23.0993 N   0  0  0  0  0  0  0  0  0  0  0  0
    9.6514   11.2528   23.6816 C   0  0  0  0  0  0  0  0  0  0  0  0
    8.7236   11.7670   24.5257 C   0  0  0  0  0  0  0  0  0  0  0  0
    7.8956   10.7136   24.9219 C   0  0  0  0  0  0  0  0  0  0  0  0
    6.7557   10.9452   25.7831 C   0  0  0  0  0  0  0  0  0  0  0  0
    5.8458   10.1694   26.0319 O   0  0  0  0  0  0  0  0  0  0  0  0
    6.8122   12.2291   26.2427 O   0  0  0  0  0  0  0  0  0  0  0  0
    5.6703   13.0284   25.9493 C   0  0  0  0  0  0  0  0  0  0  0  0
    5.9895   13.9700   24.8032 C   0  0  0  0  0  0  0  0  0  0  0  0
    8.2766    9.5645   24.3532 N   0  0  0  0  0  0  0  0  0  0  0  0
    9.3192    9.9269   23.5589 N   0  0  0  0  0  0  0  0  0  0  0  0
    9.9489    8.9225   22.7506 C   0  0  0  0  0  0  0  0  0  0  0  0
  1  2  1  0
  2  3  1  0
  4  3  1  6
  4  5  1  0
  5  6  3  0
  4  7  1  0
  7  8  2  0
  7  9  1  0
  9 10  1  0
 10 11  2  0
 11 12  1  0
 12 13  1  0
 13 14  2  0
 13 15  1  0
 15 16  1  0
 16 17  1  0
 12 18  2  0
 18 19  1  0
 19 20  1  0
 19 10  1  0
M  END
>  <Crystalforms alias>  (120) 
nan

>  <original ID>  (120) 
MEHOTWFDSZAVOA-VIFPVBQESA-N

>  <alias>  (120) 
None

>  <distance_score>  (120) 
1.85617

>  <CanonSites upload name>  (120) 
nan

>  <CanonSites alias>  (120) 
nan

>  <ConformerSites alias>  (120) 
nan

>  <observation_longname>  (120) 
nan

>  <CrystalformSites alias>  (120) 
nan

>  <tags>  (120) 
[]

>  <ref_mols>  (120) 
A0556a,A0310a

>  <ref_pdb>  (120) 
A0310a

>  <Quatassemblies upload name>  (120) 
nan

>  <inchikey>  (120) 
MEHOTWFDSZAVOA-VIFPVBQESA-N

>  <Experiment code>  (120) 
nan

>  <Quatassemblies alias>  (120) 
nan

>  <Crystalforms upload name>  (120) 
nan

>  <Centroid res>  (120) 
nan

>  <ConformerSites upload name>  (120) 
nan

>  <energy_score>  (120) 
-2.145833

>  <original SMILES>  (120) 
CCC[C@@H](C#N)C(=O)Nc1cc(C(=O)OCC)nn1C

>  <exports>  (120) 
nan

>  <CrystalformSites upload name>  (120) 
nan

>  <name>  (120) 
MEHOTWFDSZAVOA-VIFPVBQESA-N

>  <HIPPO ID>  (120) 
85564

$$$$
FAIRPICKKGRXNB-ZDUSSCGKSA-N
     RDKit          3D

 20 20  0  0  0  0  0  0  0  0999 V2000
    5.9007   13.9918   25.6342 C   0  0  0  0  0  0  0  0  0  0  0  0
    5.6285   12.7607   26.4684 C   0  0  0  0  0  0  0  0  0  0  0  0
    6.8140   11.9778   26.5193 O   0  0  0  0  0  0  0  0  0  0  0  0
    6.7263   10.7563   25.9239 C   0  0  0  0  0  0  0  0  0  0  0  0
    5.8036    9.9749   26.0888 O   0  0  0  0  0  0  0  0  0  0  0  0
    7.8269   10.6295   24.9979 C   0  0  0  0  0  0  0  0  0  0  0  0
    8.5068   11.7602   24.5492 C   0  0  0  0  0  0  0  0  0  0  0  0
    9.4000   11.3603   23.6107 C   0  0  0  0  0  0  0  0  0  0  0  0
   10.2270   12.1922   22.8866 N   0  0  0  0  0  0  0  0  0  0  0  0
   10.4024   13.5283   23.3034 C   0  0  0  0  0  0  0  0  0  0  0  0
   10.0370   13.9847   24.3883 O   0  0  0  0  0  0  0  0  0  0  0  0
   11.2088   14.3803   22.3570 C   0  0  2  0  0  0  0  0  0  0  0  0
   12.5715   13.7622   22.4056 C   0  0  0  0  0  0  0  0  0  0  0  0
   11.4343   15.7383   22.8505 C   0  0  0  0  0  0  0  0  0  0  0  0
   11.6757   16.8418   23.1034 N   0  0  0  0  0  0  0  0  0  0  0  0
   10.5691   14.5025   20.9613 C   0  0  0  0  0  0  0  0  0  0  0  0
   11.5841   14.5643   19.8308 C   0  0  0  0  0  0  0  0  0  0  0  0
    9.2444    9.9937   23.5553 N   0  0  0  0  0  0  0  0  0  0  0  0
    9.9500    9.0367   22.7499 C   0  0  0  0  0  0  0  0  0  0  0  0
    8.2885    9.5269   24.4026 N   0  0  0  0  0  0  0  0  0  0  0  0
  1  2  1  0
  2  3  1  0
  3  4  1  0
  4  5  2  0
  4  6  1  0
  6  7  1  0
  7  8  2  0
  8  9  1  0
  9 10  1  0
 10 11  2  0
 10 12  1  0
 12 13  1  6
 12 14  1  0
 14 15  3  0
 12 16  1  0
 16 17  1  0
  8 18  1  0
 18 19  1  0
 18 20  1  0
 20  6  2  0
M  END
>  <Crystalforms alias>  (121) 
nan

>  <original ID>  (121) 
FAIRPICKKGRXNB-ZDUSSCGKSA-N

>  <alias>  (121) 
None

>  <distance_score>  (121) 
1.700865

>  <CanonSites upload name>  (121) 
nan

>  <CanonSites alias>  (121) 
nan

>  <ConformerSites alias>  (121) 
nan

>  <observation_longname>  (121) 
nan

>  <CrystalformSites alias>  (121) 
nan

>  <tags>  (121) 
[]

>  <ref_mols>  (121) 
A0556a,A0310a

>  <ref_pdb>  (121) 
A0310a

>  <Quatassemblies upload name>  (121) 
nan

>  <inchikey>  (121) 
FAIRPICKKGRXNB-ZDUSSCGKSA-N

>  <Experiment code>  (121) 
nan

>  <Quatassemblies alias>  (121) 
nan

>  <Crystalforms upload name>  (121) 
nan

>  <Centroid res>  (121) 
nan

>  <ConformerSites upload name>  (121) 
nan

>  <energy_score>  (121) 
-10.45804

>  <original SMILES>  (121) 
CCOC(=O)c1cc(NC(=O)[C@](C)(C#N)CC)n(C)n1

>  <exports>  (121) 
nan

>  <CrystalformSites upload name>  (121) 
nan

>  <name>  (121) 
FAIRPICKKGRXNB-ZDUSSCGKSA-N

>  <HIPPO ID>  (121) 
85823

$$$$
FAIRPICKKGRXNB-CYBMUJFWSA-N
     RDKit          3D

 20 20  0  0  0  0  0  0  0  0999 V2000
    6.8871   14.5938   25.4751 C   0  0  0  0  0  0  0  0  0  0  0  0
    6.2813   13.2460   25.1324 C   0  0  0  0  0  0  0  0  0  0  0  0
    6.6146   12.2891   26.1584 O   0  0  0  0  0  0  0  0  0  0  0  0
    6.7842   10.9867   25.7675 C   0  0  0  0  0  0  0  0  0  0  0  0
    6.0622   10.0957   26.1901 O   0  0  0  0  0  0  0  0  0  0  0  0
    7.9526   10.7932   24.9243 C   0  0  0  0  0  0  0  0  0  0  0  0
    8.8927   11.7898   24.6816 C   0  0  0  0  0  0  0  0  0  0  0  0
    9.5997   11.4243   23.5777 C   0  0  0  0  0  0  0  0  0  0  0  0
   10.4378   12.2396   22.8287 N   0  0  0  0  0  0  0  0  0  0  0  0
   10.4827   13.6250   23.0898 C   0  0  0  0  0  0  0  0  0  0  0  0
    9.6680   14.2089   23.8057 O   0  0  0  0  0  0  0  0  0  0  0  0
   11.7159   14.3778   22.6161 C   0  0  1  0  0  0  0  0  0  0  0  0
   12.0733   14.0316   21.1852 C   0  0  0  0  0  0  0  0  0  0  0  0
   11.5386   15.8383   22.5934 C   0  0  0  0  0  0  0  0  0  0  0  0
   11.6388   16.9930   22.6286 N   0  0  0  0  0  0  0  0  0  0  0  0
   12.7866   14.2420   23.7155 C   0  0  0  0  0  0  0  0  0  0  0  0
   13.0653   12.9131   24.3443 C   0  0  0  0  0  0  0  0  0  0  0  0
    9.3208   10.0788   23.4691 N   0  0  0  0  0  0  0  0  0  0  0  0
    9.9703    9.0720   22.6793 C   0  0  0  0  0  0  0  0  0  0  0  0
    8.2890    9.6839   24.2590 N   0  0  0  0  0  0  0  0  0  0  0  0
  1  2  1  0
  2  3  1  0
  3  4  1  0
  4  5  2  0
  4  6  1  0
  6  7  1  0
  7  8  2  0
  8  9  1  0
  9 10  1  0
 10 11  2  0
 10 12  1  0
 12 13  1  6
 12 14  1  0
 14 15  3  0
 12 16  1  0
 16 17  1  0
  8 18  1  0
 18 19  1  0
 18 20  1  0
 20  6  2  0
M  END
>  <Crystalforms alias>  (122) 
nan

>  <original ID>  (122) 
FAIRPICKKGRXNB-CYBMUJFWSA-N

>  <alias>  (122) 
None

>  <distance_score>  (122) 
1.307108

>  <CanonSites upload name>  (122) 
nan

>  <CanonSites alias>  (122) 
nan

>  <ConformerSites alias>  (122) 
nan

>  <observation_longname>  (122) 
nan

>  <CrystalformSites alias>  (122) 
nan

>  <tags>  (122) 
[]

>  <ref_mols>  (122) 
A0556a,A0310a

>  <ref_pdb>  (122) 
A0310a

>  <Quatassemblies upload name>  (122) 
nan

>  <inchikey>  (122) 
FAIRPICKKGRXNB-CYBMUJFWSA-N

>  <Experiment code>  (122) 
nan

>  <Quatassemblies alias>  (122) 
nan

>  <Crystalforms upload name>  (122) 
nan

>  <Centroid res>  (122) 
nan

>  <ConformerSites upload name>  (122) 
nan

>  <energy_score>  (122) 
7.826959

>  <original SMILES>  (122) 
CCOC(=O)c1cc(NC(=O)[C@@](C)(C#N)CC)n(C)n1

>  <exports>  (122) 
nan

>  <CrystalformSites upload name>  (122) 
nan

>  <name>  (122) 
FAIRPICKKGRXNB-CYBMUJFWSA-N

>  <HIPPO ID>  (122) 
85824

$$$$
FLWASAJBVPBCFC-UHFFFAOYSA-N
     RDKit          3D

 23 24  0  0  0  0  0  0  0  0999 V2000
   12.1894   13.2913   22.3426 C   0  0  0  0  0  0  0  0  0  0  0  0
   11.1390   14.2905   22.7071 C   0  0  0  0  0  0  0  0  0  0  0  0
   10.2733   14.5844   21.4813 C   0  0  0  0  0  0  0  0  0  0  0  0
   11.9128   15.5397   23.1328 C   0  0  0  0  0  0  0  0  0  0  0  0
   10.2966   13.6993   23.8443 C   0  0  0  0  0  0  0  0  0  0  0  0
   10.1910   14.2904   24.9215 O   0  0  0  0  0  0  0  0  0  0  0  0
    9.6651   12.4873   23.5928 N   0  0  0  0  0  0  0  0  0  0  0  0
    8.6142   12.0055   24.3749 C   0  0  0  0  0  0  0  0  0  0  0  0
    7.7540   12.9007   24.9906 C   0  0  0  0  0  0  0  0  0  0  0  0
    6.7269   12.4246   25.7862 C   0  0  0  0  0  0  0  0  0  0  0  0
    6.5603   11.0570   25.9503 C   0  0  0  0  0  0  0  0  0  0  0  0
    5.4420   10.6104   26.8152 C   0  0  0  0  0  0  0  0  0  0  0  0
    4.5784   11.4261   27.1132 O   0  0  0  0  0  0  0  0  0  0  0  0
    5.4533    9.3130   27.2682 N   0  0  0  0  0  0  0  0  0  0  0  0
    4.2991    8.5703   27.8956 C   0  0  0  0  0  0  0  0  0  0  0  0
    3.9666    7.3297   27.0455 C   0  0  0  0  0  0  0  0  0  0  0  0
    2.6906    6.9313   27.2332 F   0  0  0  0  0  0  0  0  0  0  0  0
    4.0824    7.6314   25.7208 F   0  0  0  0  0  0  0  0  0  0  0  0
    4.6083    8.2374   29.3887 C   0  0  0  0  0  0  0  0  0  0  0  0
    3.1174    8.4534   29.6880 C   0  0  0  0  0  0  0  0  0  0  0  0
    3.0790    9.3659   28.4480 C   0  0  0  0  0  0  0  0  0  0  0  0
    7.4301   10.2345   25.2509 C   0  0  0  0  0  0  0  0  0  0  0  0
    8.4464   10.6739   24.4608 N   0  0  0  0  0  0  0  0  0  0  0  0
  1  2  1  0
  2  3  1  0
  2  4  1  0
  2  5  1  0
  5  6  2  0
  5  7  1  0
  7  8  1  0
  8  9  2  0
  9 10  1  0
 10 11  2  0
 11 12  1  0
 12 13  2  0
 12 14  1  0
 14 15  1  0
 15 16  1  0
 16 17  1  0
 16 18  1  0
 15 19  1  0
 19 20  1  0
 20 21  1  0
 11 22  1  0
 22 23  2  0
 23  8  1  0
 21 15  1  0
M  END
>  <Crystalforms alias>  (123) 
nan

>  <original ID>  (123) 
FLWASAJBVPBCFC-UHFFFAOYSA-N

>  <alias>  (123) 
None

>  <distance_score>  (123) 
1.439044

>  <CanonSites upload name>  (123) 
nan

>  <CanonSites alias>  (123) 
nan

>  <ConformerSites alias>  (123) 
nan

>  <observation_longname>  (123) 
nan

>  <CrystalformSites alias>  (123) 
nan

>  <tags>  (123) 
['Syndirella scaffold']

>  <ref_mols>  (123) 
A0556a,A0310a

>  <ref_pdb>  (123) 
A0310a

>  <Quatassemblies upload name>  (123) 
nan

>  <inchikey>  (123) 
FLWASAJBVPBCFC-UHFFFAOYSA-N

>  <Experiment code>  (123) 
nan

>  <Quatassemblies alias>  (123) 
nan

>  <Crystalforms upload name>  (123) 
nan

>  <Centroid res>  (123) 
nan

>  <ConformerSites upload name>  (123) 
nan

>  <energy_score>  (123) 
-25.510696

>  <original SMILES>  (123) 
CC(C)(C)C(=O)Nc1ccc(C(=O)NC2(C(F)F)CCC2)cn1

>  <exports>  (123) 
nan

>  <CrystalformSites upload name>  (123) 
nan

>  <name>  (123) 
FLWASAJBVPBCFC-UHFFFAOYSA-N

>  <HIPPO ID>  (123) 
91132

$$$$
MEWGRUZWHVKYDS-BJHJDKERSA-N
     RDKit          3D

 22 23  0  0  0  0  0  0  0  0999 V2000
    2.0723   10.7077   30.4391 C   0  0  0  0  0  0  0  0  0  0  0  0
    2.0785    9.1912   30.4993 C   0  0  0  0  0  0  0  0  0  0  0  0
    3.1214    8.5446   29.6066 C   0  0  2  0  0  0  0  0  0  0  0  0
    4.6066    9.0332   29.5978 C   0  0  0  0  0  0  0  0  0  0  0  0
    4.6192    8.5899   28.1271 C   0  0  2  0  0  0  0  0  0  0  0  0
    5.5193    9.2794   27.1905 N   0  0  0  0  0  0  0  0  0  0  0  0
    5.5550   10.5991   26.8182 C   0  0  0  0  0  0  0  0  0  0  0  0
    4.7876   11.4411   27.2689 O   0  0  0  0  0  0  0  0  0  0  0  0
    6.6069   11.0125   25.8381 C   0  0  0  0  0  0  0  0  0  0  0  0
    6.6664   12.3482   25.4742 C   0  0  0  0  0  0  0  0  0  0  0  0
    7.6890   12.7945   24.6447 C   0  0  0  0  0  0  0  0  0  0  0  0
    8.6803   11.9171   24.2217 C   0  0  0  0  0  0  0  0  0  0  0  0
    9.8406   12.4026   23.5864 N   0  0  0  0  0  0  0  0  0  0  0  0
   10.3559   13.6502   23.8997 C   0  0  0  0  0  0  0  0  0  0  0  0
    9.9088   14.3270   24.8326 O   0  0  0  0  0  0  0  0  0  0  0  0
   11.6416   14.1179   23.2115 C   0  0  0  0  0  0  0  0  0  0  0  0
   11.7517   15.6412   23.2568 C   0  0  0  0  0  0  0  0  0  0  0  0
   11.7163   13.7745   21.7401 C   0  0  0  0  0  0  0  0  0  0  0  0
   12.7798   13.5619   24.0606 C   0  0  0  0  0  0  0  0  0  0  0  0
    8.5878   10.5983   24.4558 N   0  0  0  0  0  0  0  0  0  0  0  0
    7.5607   10.1868   25.2561 C   0  0  0  0  0  0  0  0  0  0  0  0
    3.1125    8.8797   28.0939 C   0  0  0  0  0  0  0  0  0  0  0  0
  1  2  1  0
  3  2  1  1
  3  4  1  0
  4  5  1  0
  5  6  1  6
  6  7  1  0
  7  8  2  0
  7  9  1  0
  9 10  2  0
 10 11  1  0
 11 12  2  0
 12 13  1  0
 13 14  1  0
 14 15  2  0
 14 16  1  0
 16 17  1  0
 16 18  1  0
 16 19  1  0
 12 20  1  0
 20 21  2  0
  5 22  1  0
 22  3  1  0
 21  9  1  0
M  END
>  <Crystalforms alias>  (124) 
nan

>  <original ID>  (124) 
MEWGRUZWHVKYDS-BJHJDKERSA-N

>  <alias>  (124) 
None

>  <distance_score>  (124) 
1.369881

>  <CanonSites upload name>  (124) 
nan

>  <CanonSites alias>  (124) 
nan

>  <ConformerSites alias>  (124) 
nan

>  <observation_longname>  (124) 
nan

>  <CrystalformSites alias>  (124) 
nan

>  <tags>  (124) 
['Syndirella scaffold']

>  <ref_mols>  (124) 
A0556a,A0310a

>  <ref_pdb>  (124) 
A0310a

>  <Quatassemblies upload name>  (124) 
nan

>  <inchikey>  (124) 
MEWGRUZWHVKYDS-BJHJDKERSA-N

>  <Experiment code>  (124) 
nan

>  <Quatassemblies alias>  (124) 
nan

>  <Crystalforms upload name>  (124) 
nan

>  <Centroid res>  (124) 
nan

>  <ConformerSites upload name>  (124) 
nan

>  <energy_score>  (124) 
-14.264857

>  <original SMILES>  (124) 
CC[C@H]1C[C@@H](NC(=O)c2ccc(NC(=O)C(C)(C)C)nc2)C1

>  <exports>  (124) 
nan

>  <CrystalformSites upload name>  (124) 
nan

>  <name>  (124) 
MEWGRUZWHVKYDS-BJHJDKERSA-N

>  <HIPPO ID>  (124) 
102019

$$$$
UMHSSHPJSPHPQR-BJHJDKERSA-N
     RDKit          3D

 23 24  0  0  0  0  0  0  0  0999 V2000
   11.8861   15.5881   23.3412 C   0  0  0  0  0  0  0  0  0  0  0  0
   11.3343   14.2201   22.9485 C   0  0  0  0  0  0  0  0  0  0  0  0
   10.8469   14.3219   21.4988 C   0  0  0  0  0  0  0  0  0  0  0  0
   12.4789   13.2561   23.1727 C   0  0  0  0  0  0  0  0  0  0  0  0
   10.2245   13.7162   23.8658 C   0  0  0  0  0  0  0  0  0  0  0  0
    9.9199   14.3410   24.8835 O   0  0  0  0  0  0  0  0  0  0  0  0
    9.6728   12.4756   23.5434 N   0  0  0  0  0  0  0  0  0  0  0  0
    8.5711   11.9751   24.2419 C   0  0  0  0  0  0  0  0  0  0  0  0
    7.6067   12.8660   24.6815 C   0  0  0  0  0  0  0  0  0  0  0  0
    6.5941   12.4180   25.5038 C   0  0  0  0  0  0  0  0  0  0  0  0
    6.5318   11.0761   25.8530 C   0  0  0  0  0  0  0  0  0  0  0  0
    5.4787   10.7016   26.8144 C   0  0  0  0  0  0  0  0  0  0  0  0
    4.6624   11.5550   27.1584 O   0  0  0  0  0  0  0  0  0  0  0  0
    5.4404    9.4342   27.3545 N   0  0  0  0  0  0  0  0  0  0  0  0
    4.4791    9.1565   28.4368 C   0  0  2  0  0  0  0  0  0  0  0  0
    4.5739    7.7688   29.0955 C   0  0  0  0  0  0  0  0  0  0  0  0
    3.0216    7.8169   29.2019 C   0  0  2  0  0  0  0  0  0  0  0  0
    2.2418    6.5242   29.0417 C   0  0  0  0  0  0  0  0  0  0  0  0
    2.2939    5.7855   30.3056 C   0  0  0  0  0  0  0  0  0  0  0  0
    2.3804    5.2581   31.3346 N   0  0  0  0  0  0  0  0  0  0  0  0
    3.0696    8.7283   27.9633 C   0  0  0  0  0  0  0  0  0  0  0  0
    7.4737   10.2373   25.2841 C   0  0  0  0  0  0  0  0  0  0  0  0
    8.4877   10.6512   24.4739 N   0  0  0  0  0  0  0  0  0  0  0  0
  1  2  1  0
  2  3  1  0
  2  4  1  0
  2  5  1  0
  5  6  2  0
  5  7  1  0
  7  8  1  0
  8  9  2  0
  9 10  1  0
 10 11  2  0
 11 12  1  0
 12 13  2  0
 12 14  1  0
 15 14  1  6
 15 16  1  0
 16 17  1  0
 17 18  1  6
 18 19  1  0
 19 20  3  0
 17 21  1  0
 11 22  1  0
 22 23  2  0
 23  8  1  0
 21 15  1  0
M  END
>  <Crystalforms alias>  (125) 
nan

>  <original ID>  (125) 
UMHSSHPJSPHPQR-BJHJDKERSA-N

>  <alias>  (125) 
None

>  <distance_score>  (125) 
1.354046

>  <CanonSites upload name>  (125) 
nan

>  <CanonSites alias>  (125) 
nan

>  <ConformerSites alias>  (125) 
nan

>  <observation_longname>  (125) 
nan

>  <CrystalformSites alias>  (125) 
nan

>  <tags>  (125) 
[]

>  <ref_mols>  (125) 
A0556a,A0310a

>  <ref_pdb>  (125) 
A0310a

>  <Quatassemblies upload name>  (125) 
nan

>  <inchikey>  (125) 
UMHSSHPJSPHPQR-BJHJDKERSA-N

>  <Experiment code>  (125) 
nan

>  <Quatassemblies alias>  (125) 
nan

>  <Crystalforms upload name>  (125) 
nan

>  <Centroid res>  (125) 
nan

>  <ConformerSites upload name>  (125) 
nan

>  <energy_score>  (125) 
-17.041857

>  <original SMILES>  (125) 
CC(C)(C)C(=O)Nc1ccc(C(=O)N[C@H]2C[C@@H](CC#N)C2)cn1

>  <exports>  (125) 
nan

>  <CrystalformSites upload name>  (125) 
nan

>  <name>  (125) 
UMHSSHPJSPHPQR-BJHJDKERSA-N

>  <HIPPO ID>  (125) 
102325

$$$$
ADKGLDCQLGUTAN-MQMHXKEQSA-N
     RDKit          3D

 22 23  0  0  0  0  0  0  0  0999 V2000
   11.6313   16.1376   22.6886 C   0  0  0  0  0  0  0  0  0  0  0  0
   12.4853   14.9232   22.4940 C   0  0  0  0  0  0  0  0  0  0  0  0
   11.6415   13.6820   22.2807 C   0  0  0  0  0  0  0  0  0  0  0  0
   10.8820   13.2195   23.4996 C   0  0  0  0  0  0  0  0  0  0  0  0
   10.8886   13.7984   24.5827 O   0  0  0  0  0  0  0  0  0  0  0  0
   10.1168   12.0862   23.2732 N   0  0  0  0  0  0  0  0  0  0  0  0
    9.1132   11.7303   24.2493 C   0  0  0  0  0  0  0  0  0  0  0  0
    7.9323   12.6832   24.1971 C   0  0  0  0  0  0  0  0  0  0  0  0
    6.9804   12.4084   25.3405 C   0  0  0  0  0  0  0  0  0  0  0  0
    6.6148   11.0074   25.5240 N   0  0  0  0  0  0  0  0  0  0  0  0
    5.5975   10.8311   26.4648 C   0  0  0  0  0  0  0  0  0  0  0  0
    4.9018   11.7685   26.8554 O   0  0  0  0  0  0  0  0  0  0  0  0
    5.4136    9.5708   26.9788 N   0  0  0  0  0  0  0  0  0  0  0  0
    4.3060    9.2909   27.9183 C   0  0  2  0  0  0  0  0  0  0  0  0
    4.6812    8.4565   29.1593 C   0  0  0  0  0  0  0  0  0  0  0  0
    3.2854    7.7812   29.0372 C   0  0  1  0  0  0  0  0  0  0  0  0
    2.1122    8.4415   29.7679 C   0  0  0  0  0  0  0  0  0  0  0  0
    2.2026    8.1851   31.2091 C   0  0  0  0  0  0  0  0  0  0  0  0
    2.2958    7.9659   32.3441 N   0  0  0  0  0  0  0  0  0  0  0  0
    3.3812    8.1054   27.5258 C   0  0  0  0  0  0  0  0  0  0  0  0
    7.6387   10.0076   25.2775 C   0  0  0  0  0  0  0  0  0  0  0  0
    8.6615   10.2916   24.1886 C   0  0  0  0  0  0  0  0  0  0  0  0
  1  2  1  0
  2  3  1  0
  3  4  1  0
  4  5  2  0
  4  6  1  0
  6  7  1  0
  7  8  1  0
  8  9  1  0
  9 10  1  0
 10 11  1  0
 11 12  2  0
 11 13  1  0
 14 13  1  6
 14 15  1  0
 15 16  1  0
 16 17  1  1
 17 18  1  0
 18 19  3  0
 16 20  1  0
 10 21  1  0
 21 22  1  0
 22  7  1  0
 20 14  1  0
M  END
>  <Crystalforms alias>  (126) 
nan

>  <original ID>  (126) 
ADKGLDCQLGUTAN-MQMHXKEQSA-N

>  <alias>  (126) 
None

>  <distance_score>  (126) 
1.132658

>  <CanonSites upload name>  (126) 
nan

>  <CanonSites alias>  (126) 
nan

>  <ConformerSites alias>  (126) 
nan

>  <observation_longname>  (126) 
nan

>  <CrystalformSites alias>  (126) 
nan

>  <tags>  (126) 
['Syndirella scaffold']

>  <ref_mols>  (126) 
A0556a,A0310a

>  <ref_pdb>  (126) 
A0310a

>  <Quatassemblies upload name>  (126) 
nan

>  <inchikey>  (126) 
ADKGLDCQLGUTAN-MQMHXKEQSA-N

>  <Experiment code>  (126) 
nan

>  <Quatassemblies alias>  (126) 
nan

>  <Crystalforms upload name>  (126) 
nan

>  <Centroid res>  (126) 
nan

>  <ConformerSites upload name>  (126) 
nan

>  <energy_score>  (126) 
-36.267566

>  <original SMILES>  (126) 
CCCC(=O)NC1CCN(C(=O)N[C@H]2C[C@H](CC#N)C2)CC1

>  <exports>  (126) 
nan

>  <CrystalformSites upload name>  (126) 
nan

>  <name>  (126) 
ADKGLDCQLGUTAN-MQMHXKEQSA-N

>  <HIPPO ID>  (126) 
105218

$$$$
YDKISTXNPUWAJF-OKILXGFUSA-N
     RDKit          3D

 23 25  0  0  0  0  0  0  0  0999 V2000
    2.2359    7.9972   32.7740 N   0  0  0  0  0  0  0  0  0  0  0  0
    2.0905    8.4815   31.7307 C   0  0  0  0  0  0  0  0  0  0  0  0
    1.9455    9.0444   30.3887 C   0  0  0  0  0  0  0  0  0  0  0  0
    2.9233    8.3509   29.4671 C   0  0  2  0  0  0  0  0  0  0  0  0
    4.4192    8.8036   29.5012 C   0  0  0  0  0  0  0  0  0  0  0  0
    4.4085    8.5149   27.9949 C   0  0  2  0  0  0  0  0  0  0  0  0
    5.3281    9.2571   27.1323 N   0  0  0  0  0  0  0  0  0  0  0  0
    5.3113   10.5718   26.7609 C   0  0  0  0  0  0  0  0  0  0  0  0
    4.5433   11.3844   27.2665 O   0  0  0  0  0  0  0  0  0  0  0  0
    6.2432   10.9256   25.7709 N   0  0  0  0  0  0  0  0  0  0  0  0
    7.3684   10.0540   25.4319 C   0  0  0  0  0  0  0  0  0  0  0  0
    8.4058   10.5512   24.4517 C   0  0  0  0  0  0  0  0  0  0  0  0
    8.6171   12.0188   24.7222 C   0  0  0  0  0  0  0  0  0  0  0  0
    9.7970   12.6004   24.1336 N   0  0  0  0  0  0  0  0  0  0  0  0
   10.0514   12.3747   22.7354 C   0  0  0  0  0  0  0  0  0  0  0  0
    9.9032   13.7074   22.0245 C   0  0  0  0  0  0  0  0  0  0  0  0
   11.0896   14.5693   22.4359 C   0  0  0  0  0  0  0  0  0  0  0  0
   11.4759   14.3630   23.8972 C   0  0  0  0  0  0  0  0  0  0  0  0
   10.3324   13.7702   24.6885 C   0  0  0  0  0  0  0  0  0  0  0  0
    9.9154   14.2865   25.7206 O   0  0  0  0  0  0  0  0  0  0  0  0
    7.3441   12.8048   24.4996 C   0  0  0  0  0  0  0  0  0  0  0  0
    6.3631   12.3739   25.5749 C   0  0  0  0  0  0  0  0  0  0  0  0
    2.9120    8.8601   28.0123 C   0  0  0  0  0  0  0  0  0  0  0  0
  1  2  3  0
  2  3  1  0
  4  3  1  1
  4  5  1  0
  5  6  1  0
  6  7  1  6
  7  8  1  0
  8  9  2  0
  8 10  1  0
 10 11  1  0
 11 12  1  0
 12 13  1  0
 13 14  1  0
 14 15  1  0
 15 16  1  0
 16 17  1  0
 17 18  1  0
 18 19  1  0
 19 20  2  0
 13 21  1  0
 21 22  1  0
  6 23  1  0
 23  4  1  0
 22 10  1  0
 19 14  1  0
M  END
>  <Crystalforms alias>  (127) 
nan

>  <original ID>  (127) 
YDKISTXNPUWAJF-OKILXGFUSA-N

>  <alias>  (127) 
None

>  <distance_score>  (127) 
1.74687

>  <CanonSites upload name>  (127) 
nan

>  <CanonSites alias>  (127) 
nan

>  <ConformerSites alias>  (127) 
nan

>  <observation_longname>  (127) 
nan

>  <CrystalformSites alias>  (127) 
nan

>  <tags>  (127) 
[]

>  <ref_mols>  (127) 
A0556a,A0310a

>  <ref_pdb>  (127) 
A0310a

>  <Quatassemblies upload name>  (127) 
nan

>  <inchikey>  (127) 
YDKISTXNPUWAJF-OKILXGFUSA-N

>  <Experiment code>  (127) 
nan

>  <Quatassemblies alias>  (127) 
nan

>  <Crystalforms upload name>  (127) 
nan

>  <Centroid res>  (127) 
nan

>  <ConformerSites upload name>  (127) 
nan

>  <energy_score>  (127) 
-27.142605

>  <original SMILES>  (127) 
N#CC[C@H]1C[C@@H](NC(=O)N2CCC(N3CCCCC3=O)CC2)C1

>  <exports>  (127) 
nan

>  <CrystalformSites upload name>  (127) 
nan

>  <name>  (127) 
YDKISTXNPUWAJF-OKILXGFUSA-N

>  <HIPPO ID>  (127) 
105813

$$$$
BKBFLODZEQEWBQ-HXUWFJFHSA-N
     RDKit          3D

 29 31  0  0  0  0  0  0  0  0999 V2000
    6.0422   10.3516   27.0419 C   0  0  0  0  0  0  0  0  0  0  0  0
    7.1361   10.6013   26.0708 C   0  0  0  0  0  0  0  0  0  0  0  0
    7.5638    9.6078   25.2907 N   0  0  0  0  0  0  0  0  0  0  0  0
    8.5016   10.1680   24.5011 N   0  0  0  0  0  0  0  0  0  0  0  0
    9.1609    9.3578   23.5002 C   0  0  0  0  0  0  0  0  0  0  0  0
    8.7083   11.4958   24.7820 C   0  0  0  0  0  0  0  0  0  0  0  0
    9.6745   12.3491   24.0467 C   0  0  0  0  0  0  0  0  0  0  0  0
    7.8528   11.8029   25.8280 C   0  0  0  0  0  0  0  0  0  0  0  0
    7.7071   13.1117   26.5313 C   0  0  0  0  0  0  0  0  0  0  0  0
    6.8212   14.1478   25.8592 C   0  0  0  0  0  0  0  0  0  0  0  0
    6.8599   15.3148   26.2450 O   0  0  0  0  0  0  0  0  0  0  0  0
    5.9813   13.6887   24.8862 N   0  0  0  0  0  0  0  0  0  0  0  0
    4.9301   14.4478   24.2259 C   0  0  2  0  0  0  0  0  0  0  0  0
    5.3910   15.6272   23.3591 C   0  0  0  0  0  0  0  0  0  0  0  0
    6.6824   15.5922   22.7031 N   0  0  0  0  0  0  0  0  0  0  0  0
    7.2467   14.5604   22.0073 C   0  0  0  0  0  0  0  0  0  0  0  0
    6.7518   13.4349   21.9381 O   0  0  0  0  0  0  0  0  0  0  0  0
    8.6140   14.8791   21.4083 C   0  0  0  0  0  0  0  0  0  0  0  0
    8.7785   16.5976   20.9968 Cl  0  0  0  0  0  0  0  0  0  0  0  0
    3.7442   14.6991   25.1601 C   0  0  0  0  0  0  0  0  0  0  0  0
    3.0963   15.9334   25.2766 C   0  0  0  0  0  0  0  0  0  0  0  0
    1.9306   16.0701   26.0377 C   0  0  0  0  0  0  0  0  0  0  0  0
    1.3986   14.9801   26.7368 C   0  0  0  0  0  0  0  0  0  0  0  0
    0.2168   15.0933   27.4845 C   0  0  0  0  0  0  0  0  0  0  0  0
   -0.2802   14.0012   28.1953 C   0  0  0  0  0  0  0  0  0  0  0  0
    0.4058   12.7906   28.1822 C   0  0  0  0  0  0  0  0  0  0  0  0
    1.5772   12.6621   27.4378 C   0  0  0  0  0  0  0  0  0  0  0  0
    2.0748   13.7439   26.6951 C   0  0  0  0  0  0  0  0  0  0  0  0
    3.2268   13.6213   25.9020 C   0  0  0  0  0  0  0  0  0  0  0  0
  1  2  1  0
  2  3  2  0
  3  4  1  0
  4  5  1  0
  4  6  1  0
  6  7  1  0
  6  8  2  0
  8  9  1  0
  9 10  1  0
 10 11  2  0
 10 12  1  0
 12 13  1  0
 13 14  1  1
 14 15  1  0
 15 16  1  0
 16 17  2  0
 16 18  1  0
 18 19  1  0
 13 20  1  0
 20 21  2  0
 21 22  1  0
 22 23  2  0
 23 24  1  0
 24 25  2  0
 25 26  1  0
 26 27  2  0
 27 28  1  0
 28 29  2  0
  8  2  1  0
 29 20  1  0
 28 23  1  0
M  END
>  <Crystalforms alias>  (128) 
nan

>  <original ID>  (128) 
BKBFLODZEQEWBQ-HXUWFJFHSA-N

>  <alias>  (128) 
None

>  <distance_score>  (128) 
0.34888

>  <CanonSites upload name>  (128) 
nan

>  <CanonSites alias>  (128) 
nan

>  <ConformerSites alias>  (128) 
nan

>  <observation_longname>  (128) 
nan

>  <CrystalformSites alias>  (128) 
nan

>  <tags>  (128) 
['Syndirella scaffold']

>  <ref_mols>  (128) 
A1346a

>  <ref_pdb>  (128) 
A1346a

>  <Quatassemblies upload name>  (128) 
nan

>  <inchikey>  (128) 
BKBFLODZEQEWBQ-HXUWFJFHSA-N

>  <Experiment code>  (128) 
nan

>  <Quatassemblies alias>  (128) 
nan

>  <Crystalforms upload name>  (128) 
nan

>  <Centroid res>  (128) 
nan

>  <ConformerSites upload name>  (128) 
nan

>  <energy_score>  (128) 
-31.972745

>  <original SMILES>  (128) 
Cc1nn(C)c(C)c1CC(=O)N[C@H](CNC(=O)CCl)c1ccc2ccccc2c1

>  <exports>  (128) 
nan

>  <CrystalformSites upload name>  (128) 
nan

>  <name>  (128) 
BKBFLODZEQEWBQ-HXUWFJFHSA-N

>  <HIPPO ID>  (128) 
109261

$$$$
BKBFLODZEQEWBQ-FQEVSTJZSA-N
     RDKit          3D

 29 31  0  0  0  0  0  0  0  0999 V2000
    6.0003   10.2873   27.0183 C   0  0  0  0  0  0  0  0  0  0  0  0
    7.0839   10.5670   26.0442 C   0  0  0  0  0  0  0  0  0  0  0  0
    7.5141    9.5962   25.2376 N   0  0  0  0  0  0  0  0  0  0  0  0
    8.4586   10.1782   24.4739 N   0  0  0  0  0  0  0  0  0  0  0  0
    9.1538    9.3853   23.4861 C   0  0  0  0  0  0  0  0  0  0  0  0
    8.6619   11.4977   24.7874 C   0  0  0  0  0  0  0  0  0  0  0  0
    9.6398   12.3677   24.0856 C   0  0  0  0  0  0  0  0  0  0  0  0
    7.8135   11.7679   25.8488 C   0  0  0  0  0  0  0  0  0  0  0  0
    7.7398   13.0117   26.6575 C   0  0  0  0  0  0  0  0  0  0  0  0
    7.0009   14.1962   26.0930 C   0  0  0  0  0  0  0  0  0  0  0  0
    7.1844   15.2994   26.6125 O   0  0  0  0  0  0  0  0  0  0  0  0
    6.1359   13.9910   25.0546 N   0  0  0  0  0  0  0  0  0  0  0  0
    5.2281   15.0419   24.6051 C   0  0  1  0  0  0  0  0  0  0  0  0
    5.0718   15.0583   23.0677 C   0  0  0  0  0  0  0  0  0  0  0  0
    6.3013   15.4477   22.3922 N   0  0  0  0  0  0  0  0  0  0  0  0
    7.2494   14.5478   21.9881 C   0  0  0  0  0  0  0  0  0  0  0  0
    7.0597   13.3314   22.0849 O   0  0  0  0  0  0  0  0  0  0  0  0
    8.5625   15.0942   21.4446 C   0  0  0  0  0  0  0  0  0  0  0  0
    8.5252   16.8354   21.1384 Cl  0  0  0  0  0  0  0  0  0  0  0  0
    3.8807   14.9767   25.3152 C   0  0  0  0  0  0  0  0  0  0  0  0
    3.0861   16.1306   25.3695 C   0  0  0  0  0  0  0  0  0  0  0  0
    1.8459   16.1274   26.0091 C   0  0  0  0  0  0  0  0  0  0  0  0
    1.3861   14.9766   26.6582 C   0  0  0  0  0  0  0  0  0  0  0  0
    0.1577   14.9659   27.3350 C   0  0  0  0  0  0  0  0  0  0  0  0
   -0.2635   13.8269   28.0188 C   0  0  0  0  0  0  0  0  0  0  0  0
    0.5381   12.6893   28.0392 C   0  0  0  0  0  0  0  0  0  0  0  0
    1.7539   12.6807   27.3572 C   0  0  0  0  0  0  0  0  0  0  0  0
    2.1870   13.8131   26.6501 C   0  0  0  0  0  0  0  0  0  0  0  0
    3.4071   13.8190   25.9510 C   0  0  0  0  0  0  0  0  0  0  0  0
  1  2  1  0
  2  3  2  0
  3  4  1  0
  4  5  1  0
  4  6  1  0
  6  7  1  0
  6  8  2  0
  8  9  1  0
  9 10  1  0
 10 11  2  0
 10 12  1  0
 12 13  1  0
 13 14  1  6
 14 15  1  0
 15 16  1  0
 16 17  2  0
 16 18  1  0
 18 19  1  0
 13 20  1  0
 20 21  2  0
 21 22  1  0
 22 23  2  0
 23 24  1  0
 24 25  2  0
 25 26  1  0
 26 27  2  0
 27 28  1  0
 28 29  2  0
  8  2  1  0
 29 20  1  0
 28 23  1  0
M  END
>  <Crystalforms alias>  (129) 
nan

>  <original ID>  (129) 
BKBFLODZEQEWBQ-FQEVSTJZSA-N

>  <alias>  (129) 
None

>  <distance_score>  (129) 
0.196626

>  <CanonSites upload name>  (129) 
nan

>  <CanonSites alias>  (129) 
nan

>  <ConformerSites alias>  (129) 
nan

>  <observation_longname>  (129) 
nan

>  <CrystalformSites alias>  (129) 
nan

>  <tags>  (129) 
['Syndirella scaffold']

>  <ref_mols>  (129) 
A1346a

>  <ref_pdb>  (129) 
A1346a

>  <Quatassemblies upload name>  (129) 
nan

>  <inchikey>  (129) 
BKBFLODZEQEWBQ-FQEVSTJZSA-N

>  <Experiment code>  (129) 
nan

>  <Quatassemblies alias>  (129) 
nan

>  <Crystalforms upload name>  (129) 
nan

>  <Centroid res>  (129) 
nan

>  <ConformerSites upload name>  (129) 
nan

>  <energy_score>  (129) 
-41.161612

>  <original SMILES>  (129) 
Cc1nn(C)c(C)c1CC(=O)N[C@@H](CNC(=O)CCl)c1ccc2ccccc2c1

>  <exports>  (129) 
nan

>  <CrystalformSites upload name>  (129) 
nan

>  <name>  (129) 
BKBFLODZEQEWBQ-FQEVSTJZSA-N

>  <HIPPO ID>  (129) 
109262

$$$$
ZRQLWTLHYWCXLC-NRFANRHFSA-N
     RDKit          3D

 30 32  0  0  0  0  0  0  0  0999 V2000
    9.6419   14.6382   21.3323 C   0  0  0  0  0  0  0  0  0  0  0  0
    8.4969   15.3084   21.4983 C   0  0  0  0  0  0  0  0  0  0  0  0
    8.4423   16.9881   21.1214 Cl  0  0  0  0  0  0  0  0  0  0  0  0
    7.2614   14.6242   22.0125 C   0  0  0  0  0  0  0  0  0  0  0  0
    7.1778   13.4001   22.1072 O   0  0  0  0  0  0  0  0  0  0  0  0
    6.2330   15.4588   22.3585 N   0  0  0  0  0  0  0  0  0  0  0  0
    5.0401   15.0004   23.0537 C   0  0  0  0  0  0  0  0  0  0  0  0
    5.2125   15.0160   24.5901 C   0  0  2  0  0  0  0  0  0  0  0  0
    6.1233   13.9742   25.0527 N   0  0  0  0  0  0  0  0  0  0  0  0
    6.9839   14.1922   26.0929 C   0  0  0  0  0  0  0  0  0  0  0  0
    7.1779   15.3053   26.5864 O   0  0  0  0  0  0  0  0  0  0  0  0
    7.6955   13.0072   26.6943 C   0  0  0  0  0  0  0  0  0  0  0  0
    7.7833   11.7573   25.8951 C   0  0  0  0  0  0  0  0  0  0  0  0
    7.0443   10.5599   26.0739 C   0  0  0  0  0  0  0  0  0  0  0  0
    5.9517   10.2802   27.0375 C   0  0  0  0  0  0  0  0  0  0  0  0
    7.4717    9.5932   25.2605 N   0  0  0  0  0  0  0  0  0  0  0  0
    8.4429   10.1675   24.5249 N   0  0  0  0  0  0  0  0  0  0  0  0
    9.1431    9.3767   23.5386 C   0  0  0  0  0  0  0  0  0  0  0  0
    8.6604   11.4789   24.8602 C   0  0  0  0  0  0  0  0  0  0  0  0
    9.6746   12.3418   24.2069 C   0  0  0  0  0  0  0  0  0  0  0  0
    3.8702   14.9610   25.3107 C   0  0  0  0  0  0  0  0  0  0  0  0
    3.0835   16.1201   25.3682 C   0  0  0  0  0  0  0  0  0  0  0  0
    1.8457   16.1244   26.0125 C   0  0  0  0  0  0  0  0  0  0  0  0
    1.3811   14.9764   26.6630 C   0  0  0  0  0  0  0  0  0  0  0  0
    0.1549   14.9729   27.3437 C   0  0  0  0  0  0  0  0  0  0  0  0
   -0.2706   13.8366   28.0295 C   0  0  0  0  0  0  0  0  0  0  0  0
    0.5249   12.6948   28.0485 C   0  0  0  0  0  0  0  0  0  0  0  0
    1.7384   12.6788   27.3624 C   0  0  0  0  0  0  0  0  0  0  0  0
    2.1752   13.8082   26.6529 C   0  0  0  0  0  0  0  0  0  0  0  0
    3.3926   13.8065   25.9491 C   0  0  0  0  0  0  0  0  0  0  0  0
  1  2  2  0
  2  3  1  0
  2  4  1  0
  4  5  2  0
  4  6  1  0
  6  7  1  0
  8  7  1  6
  8  9  1  0
  9 10  1  0
 10 11  2  0
 10 12  1  0
 12 13  1  0
 13 14  1  0
 14 15  1  0
 14 16  2  0
 16 17  1  0
 17 18  1  0
 17 19  1  0
 19 20  1  0
  8 21  1  0
 21 22  2  0
 22 23  1  0
 23 24  2  0
 24 25  1  0
 25 26  2  0
 26 27  1  0
 27 28  2  0
 28 29  1  0
 29 30  2  0
 19 13  2  0
 30 21  1  0
 29 24  1  0
M  END
>  <Crystalforms alias>  (130) 
nan

>  <original ID>  (130) 
ZRQLWTLHYWCXLC-NRFANRHFSA-N

>  <alias>  (130) 
None

>  <distance_score>  (130) 
0.2076

>  <CanonSites upload name>  (130) 
nan

>  <CanonSites alias>  (130) 
nan

>  <ConformerSites alias>  (130) 
nan

>  <observation_longname>  (130) 
nan

>  <CrystalformSites alias>  (130) 
nan

>  <tags>  (130) 
[]

>  <ref_mols>  (130) 
A1346a

>  <ref_pdb>  (130) 
A1346a

>  <Quatassemblies upload name>  (130) 
nan

>  <inchikey>  (130) 
ZRQLWTLHYWCXLC-NRFANRHFSA-N

>  <Experiment code>  (130) 
nan

>  <Quatassemblies alias>  (130) 
nan

>  <Crystalforms upload name>  (130) 
nan

>  <Centroid res>  (130) 
nan

>  <ConformerSites upload name>  (130) 
nan

>  <energy_score>  (130) 
-90.584366

>  <original SMILES>  (130) 
C=C(Cl)C(=O)NC[C@H](NC(=O)Cc1c(C)nn(C)c1C)c1ccc2ccccc2c1

>  <exports>  (130) 
nan

>  <CrystalformSites upload name>  (130) 
nan

>  <name>  (130) 
ZRQLWTLHYWCXLC-NRFANRHFSA-N

>  <HIPPO ID>  (130) 
109267

$$$$
ZRQLWTLHYWCXLC-OAQYLSRUSA-N
     RDKit          3D

 30 32  0  0  0  0  0  0  0  0999 V2000
    9.6444   14.4724   21.2855 C   0  0  0  0  0  0  0  0  0  0  0  0
    8.5558   15.2292   21.4374 C   0  0  0  0  0  0  0  0  0  0  0  0
    8.6097   16.8865   20.9569 Cl  0  0  0  0  0  0  0  0  0  0  0  0
    7.2935   14.6978   22.0681 C   0  0  0  0  0  0  0  0  0  0  0  0
    6.9848   13.5098   22.0418 O   0  0  0  0  0  0  0  0  0  0  0  0
    6.5770   15.6862   22.6722 N   0  0  0  0  0  0  0  0  0  0  0  0
    5.3081   15.6360   23.3611 C   0  0  0  0  0  0  0  0  0  0  0  0
    4.9045   14.4425   24.2317 C   0  0  1  0  0  0  0  0  0  0  0  0
    5.9759   13.7079   24.8851 N   0  0  0  0  0  0  0  0  0  0  0  0
    6.7938   14.1704   25.8749 C   0  0  0  0  0  0  0  0  0  0  0  0
    6.8288   15.3408   26.2496 O   0  0  0  0  0  0  0  0  0  0  0  0
    7.6526   13.1330   26.5834 C   0  0  0  0  0  0  0  0  0  0  0  0
    7.8176   11.8202   25.8906 C   0  0  0  0  0  0  0  0  0  0  0  0
    7.0918   10.6184   26.1035 C   0  0  0  0  0  0  0  0  0  0  0  0
    5.9789   10.3593   27.0499 C   0  0  0  0  0  0  0  0  0  0  0  0
    7.5342    9.6319   25.3214 N   0  0  0  0  0  0  0  0  0  0  0  0
    8.5042   10.1929   24.5756 N   0  0  0  0  0  0  0  0  0  0  0  0
    9.1820    9.3915   23.5821 C   0  0  0  0  0  0  0  0  0  0  0  0
    8.7222   11.5099   24.8887 C   0  0  0  0  0  0  0  0  0  0  0  0
    9.7418   12.3647   24.2350 C   0  0  0  0  0  0  0  0  0  0  0  0
    3.7182   14.6733   25.1744 C   0  0  0  0  0  0  0  0  0  0  0  0
    3.0527   15.8992   25.2990 C   0  0  0  0  0  0  0  0  0  0  0  0
    1.8905   16.0198   26.0669 C   0  0  0  0  0  0  0  0  0  0  0  0
    1.3791   14.9222   26.7672 C   0  0  0  0  0  0  0  0  0  0  0  0
    0.2008   15.0204   27.5218 C   0  0  0  0  0  0  0  0  0  0  0  0
   -0.2769   13.9217   28.2350 C   0  0  0  0  0  0  0  0  0  0  0  0
    0.4252   12.7205   28.2170 C   0  0  0  0  0  0  0  0  0  0  0  0
    1.5939   12.6075   27.4657 C   0  0  0  0  0  0  0  0  0  0  0  0
    2.0725   13.6956   26.7198 C   0  0  0  0  0  0  0  0  0  0  0  0
    3.2213   13.5886   25.9186 C   0  0  0  0  0  0  0  0  0  0  0  0
  1  2  2  0
  2  3  1  0
  2  4  1  0
  4  5  2  0
  4  6  1  0
  6  7  1  0
  8  7  1  1
  8  9  1  0
  9 10  1  0
 10 11  2  0
 10 12  1  0
 12 13  1  0
 13 14  1  0
 14 15  1  0
 14 16  2  0
 16 17  1  0
 17 18  1  0
 17 19  1  0
 19 20  1  0
  8 21  1  0
 21 22  2  0
 22 23  1  0
 23 24  2  0
 24 25  1  0
 25 26  2  0
 26 27  1  0
 27 28  2  0
 28 29  1  0
 29 30  2  0
 19 13  2  0
 30 21  1  0
 29 24  1  0
M  END
>  <Crystalforms alias>  (131) 
nan

>  <original ID>  (131) 
ZRQLWTLHYWCXLC-OAQYLSRUSA-N

>  <alias>  (131) 
None

>  <distance_score>  (131) 
0.34898

>  <CanonSites upload name>  (131) 
nan

>  <CanonSites alias>  (131) 
nan

>  <ConformerSites alias>  (131) 
nan

>  <observation_longname>  (131) 
nan

>  <CrystalformSites alias>  (131) 
nan

>  <tags>  (131) 
[]

>  <ref_mols>  (131) 
A1346a

>  <ref_pdb>  (131) 
A1346a

>  <Quatassemblies upload name>  (131) 
nan

>  <inchikey>  (131) 
ZRQLWTLHYWCXLC-OAQYLSRUSA-N

>  <Experiment code>  (131) 
nan

>  <Quatassemblies alias>  (131) 
nan

>  <Crystalforms upload name>  (131) 
nan

>  <Centroid res>  (131) 
nan

>  <ConformerSites upload name>  (131) 
nan

>  <energy_score>  (131) 
-37.935986

>  <original SMILES>  (131) 
C=C(Cl)C(=O)NC[C@@H](NC(=O)Cc1c(C)nn(C)c1C)c1ccc2ccccc2c1

>  <exports>  (131) 
nan

>  <CrystalformSites upload name>  (131) 
nan

>  <name>  (131) 
ZRQLWTLHYWCXLC-OAQYLSRUSA-N

>  <HIPPO ID>  (131) 
109268

$$$$
KIACNCTWLNMWMN-LJQANCHMSA-N
     RDKit          3D

 30 32  0  0  0  0  0  0  0  0999 V2000
    6.0418   10.3745   27.0433 C   0  0  0  0  0  0  0  0  0  0  0  0
    7.1317   10.6324   26.0694 C   0  0  0  0  0  0  0  0  0  0  0  0
    7.5703    9.6385   25.2955 N   0  0  0  0  0  0  0  0  0  0  0  0
    8.5052   10.2030   24.5076 N   0  0  0  0  0  0  0  0  0  0  0  0
    9.1813    9.3899   23.5222 C   0  0  0  0  0  0  0  0  0  0  0  0
    8.6939   11.5358   24.7734 C   0  0  0  0  0  0  0  0  0  0  0  0
    9.6509   12.3918   24.0273 C   0  0  0  0  0  0  0  0  0  0  0  0
    7.8350   11.8410   25.8175 C   0  0  0  0  0  0  0  0  0  0  0  0
    7.6783   13.1521   26.5146 C   0  0  0  0  0  0  0  0  0  0  0  0
    6.8082   14.1906   25.8231 C   0  0  0  0  0  0  0  0  0  0  0  0
    6.8602   15.3619   26.1921 O   0  0  0  0  0  0  0  0  0  0  0  0
    5.9682   13.7299   24.8516 N   0  0  0  0  0  0  0  0  0  0  0  0
    4.8823   14.4658   24.2217 C   0  0  2  0  0  0  0  0  0  0  0  0
    5.2597   15.6191   23.2790 C   0  0  0  0  0  0  0  0  0  0  0  0
    6.6043   15.7439   22.7629 N   0  0  0  0  0  0  0  0  0  0  0  0
    7.3557   14.8188   22.0644 C   0  0  0  0  0  0  0  0  0  0  0  0
    6.9883   13.6558   21.8953 O   0  0  0  0  0  0  0  0  0  0  0  0
    8.7335   15.4003   21.6658 C   0  0  0  0  0  0  0  0  0  0  0  0
    8.5386   17.0377   21.0136 Cl  0  0  0  0  0  0  0  0  0  0  0  0
    9.6295   14.4233   20.5376 Cl  0  0  0  0  0  0  0  0  0  0  0  0
    3.7120   14.6988   25.1827 C   0  0  0  0  0  0  0  0  0  0  0  0
    3.0481   15.9228   25.3255 C   0  0  0  0  0  0  0  0  0  0  0  0
    1.8893   16.0345   26.1007 C   0  0  0  0  0  0  0  0  0  0  0  0
    1.3807   14.9299   26.7915 C   0  0  0  0  0  0  0  0  0  0  0  0
    0.2037   15.0193   27.5492 C   0  0  0  0  0  0  0  0  0  0  0  0
   -0.2715   13.9131   28.2522 C   0  0  0  0  0  0  0  0  0  0  0  0
    0.4323   12.7131   28.2213 C   0  0  0  0  0  0  0  0  0  0  0  0
    1.5999   12.6092   27.4669 C   0  0  0  0  0  0  0  0  0  0  0  0
    2.0753   13.7050   26.7302 C   0  0  0  0  0  0  0  0  0  0  0  0
    3.2206   13.6073   25.9228 C   0  0  0  0  0  0  0  0  0  0  0  0
  1  2  1  0
  2  3  2  0
  3  4  1  0
  4  5  1  0
  4  6  1  0
  6  7  1  0
  6  8  2  0
  8  9  1  0
  9 10  1  0
 10 11  2  0
 10 12  1  0
 12 13  1  0
 13 14  1  1
 14 15  1  0
 15 16  1  0
 16 17  2  0
 16 18  1  0
 18 19  1  0
 18 20  1  0
 13 21  1  0
 21 22  2  0
 22 23  1  0
 23 24  2  0
 24 25  1  0
 25 26  2  0
 26 27  1  0
 27 28  2  0
 28 29  1  0
 29 30  2  0
  8  2  1  0
 30 21  1  0
 29 24  1  0
M  END
>  <Crystalforms alias>  (132) 
nan

>  <original ID>  (132) 
KIACNCTWLNMWMN-LJQANCHMSA-N

>  <alias>  (132) 
None

>  <distance_score>  (132) 
0.358982

>  <CanonSites upload name>  (132) 
nan

>  <CanonSites alias>  (132) 
nan

>  <ConformerSites alias>  (132) 
nan

>  <observation_longname>  (132) 
nan

>  <CrystalformSites alias>  (132) 
nan

>  <tags>  (132) 
[]

>  <ref_mols>  (132) 
A1346a

>  <ref_pdb>  (132) 
A1346a

>  <Quatassemblies upload name>  (132) 
nan

>  <inchikey>  (132) 
KIACNCTWLNMWMN-LJQANCHMSA-N

>  <Experiment code>  (132) 
nan

>  <Quatassemblies alias>  (132) 
nan

>  <Crystalforms upload name>  (132) 
nan

>  <Centroid res>  (132) 
nan

>  <ConformerSites upload name>  (132) 
nan

>  <energy_score>  (132) 
-22.14124

>  <original SMILES>  (132) 
Cc1nn(C)c(C)c1CC(=O)N[C@H](CNC(=O)C(Cl)Cl)c1ccc2ccccc2c1

>  <exports>  (132) 
nan

>  <CrystalformSites upload name>  (132) 
nan

>  <name>  (132) 
KIACNCTWLNMWMN-LJQANCHMSA-N

>  <HIPPO ID>  (132) 
109277

$$$$
KIACNCTWLNMWMN-IBGZPJMESA-N
     RDKit          3D

 30 32  0  0  0  0  0  0  0  0999 V2000
    5.8995   10.2235   27.0686 C   0  0  0  0  0  0  0  0  0  0  0  0
    6.9930   10.5025   26.1063 C   0  0  0  0  0  0  0  0  0  0  0  0
    7.4191    9.5367   25.2892 N   0  0  0  0  0  0  0  0  0  0  0  0
    8.3940   10.1114   24.5594 N   0  0  0  0  0  0  0  0  0  0  0  0
    9.0954    9.3371   23.5603 C   0  0  0  0  0  0  0  0  0  0  0  0
    8.6120   11.4183   24.9033 C   0  0  0  0  0  0  0  0  0  0  0  0
    9.6277   12.2676   24.2434 C   0  0  0  0  0  0  0  0  0  0  0  0
    7.7331   11.7003   25.9337 C   0  0  0  0  0  0  0  0  0  0  0  0
    7.6473   12.9498   26.7353 C   0  0  0  0  0  0  0  0  0  0  0  0
    6.9863   14.1572   26.1218 C   0  0  0  0  0  0  0  0  0  0  0  0
    7.1839   15.2606   26.6358 O   0  0  0  0  0  0  0  0  0  0  0  0
    6.1601   13.9698   25.0480 N   0  0  0  0  0  0  0  0  0  0  0  0
    5.2665   15.0298   24.5955 C   0  0  1  0  0  0  0  0  0  0  0  0
    5.1241   15.0510   23.0572 C   0  0  0  0  0  0  0  0  0  0  0  0
    6.3370   15.5041   22.3868 N   0  0  0  0  0  0  0  0  0  0  0  0
    7.3181   14.6531   21.9322 C   0  0  0  0  0  0  0  0  0  0  0  0
    7.1666   13.4284   22.0233 O   0  0  0  0  0  0  0  0  0  0  0  0
    8.5723   15.2786   21.2857 C   0  0  0  0  0  0  0  0  0  0  0  0
   10.0058   14.8661   22.2385 Cl  0  0  0  0  0  0  0  0  0  0  0  0
    8.4474   17.0338   21.1111 Cl  0  0  0  0  0  0  0  0  0  0  0  0
    3.9111   14.9689   25.2949 C   0  0  0  0  0  0  0  0  0  0  0  0
    3.1186   16.1245   25.3414 C   0  0  0  0  0  0  0  0  0  0  0  0
    1.8753   16.1276   25.9757 C   0  0  0  0  0  0  0  0  0  0  0  0
    1.4092   14.9814   26.6282 C   0  0  0  0  0  0  0  0  0  0  0  0
    0.1784   14.9774   27.3008 C   0  0  0  0  0  0  0  0  0  0  0  0
   -0.2482   13.8431   27.9894 C   0  0  0  0  0  0  0  0  0  0  0  0
    0.5509   12.7040   28.0190 C   0  0  0  0  0  0  0  0  0  0  0  0
    1.7691   12.6889   27.3413 C   0  0  0  0  0  0  0  0  0  0  0  0
    2.2073   13.8162   26.6289 C   0  0  0  0  0  0  0  0  0  0  0  0
    3.4306   13.8157   25.9344 C   0  0  0  0  0  0  0  0  0  0  0  0
  1  2  1  0
  2  3  2  0
  3  4  1  0
  4  5  1  0
  4  6  1  0
  6  7  1  0
  6  8  2  0
  8  9  1  0
  9 10  1  0
 10 11  2  0
 10 12  1  0
 12 13  1  0
 13 14  1  6
 14 15  1  0
 15 16  1  0
 16 17  2  0
 16 18  1  0
 18 19  1  0
 18 20  1  0
 13 21  1  0
 21 22  2  0
 22 23  1  0
 23 24  2  0
 24 25  1  0
 25 26  2  0
 26 27  1  0
 27 28  2  0
 28 29  1  0
 29 30  2  0
  8  2  1  0
 30 21  1  0
 29 24  1  0
M  END
>  <Crystalforms alias>  (133) 
nan

>  <original ID>  (133) 
KIACNCTWLNMWMN-IBGZPJMESA-N

>  <alias>  (133) 
None

>  <distance_score>  (133) 
0.206726

>  <CanonSites upload name>  (133) 
nan

>  <CanonSites alias>  (133) 
nan

>  <ConformerSites alias>  (133) 
nan

>  <observation_longname>  (133) 
nan

>  <CrystalformSites alias>  (133) 
nan

>  <tags>  (133) 
[]

>  <ref_mols>  (133) 
A1346a

>  <ref_pdb>  (133) 
A1346a

>  <Quatassemblies upload name>  (133) 
nan

>  <inchikey>  (133) 
KIACNCTWLNMWMN-IBGZPJMESA-N

>  <Experiment code>  (133) 
nan

>  <Quatassemblies alias>  (133) 
nan

>  <Crystalforms upload name>  (133) 
nan

>  <Centroid res>  (133) 
nan

>  <ConformerSites upload name>  (133) 
nan

>  <energy_score>  (133) 
-31.377479

>  <original SMILES>  (133) 
Cc1nn(C)c(C)c1CC(=O)N[C@@H](CNC(=O)C(Cl)Cl)c1ccc2ccccc2c1

>  <exports>  (133) 
nan

>  <CrystalformSites upload name>  (133) 
nan

>  <name>  (133) 
KIACNCTWLNMWMN-IBGZPJMESA-N

>  <HIPPO ID>  (133) 
109278

$$$$
DYEVYPDGGVNIHU-LLUKFRMWSA-N
     RDKit          3D

 35 39  0  0  0  0  0  0  0  0999 V2000
    5.8648   10.3220   27.0715 C   0  0  0  0  0  0  0  0  0  0  0  0
    6.9862   10.5601   26.1310 C   0  0  0  0  0  0  0  0  0  0  0  0
    7.4226    9.5588   25.3625 N   0  0  0  0  0  0  0  0  0  0  0  0
    8.4193   10.0955   24.6353 N   0  0  0  0  0  0  0  0  0  0  0  0
    9.0856    9.3070   23.6214 C   0  0  0  0  0  0  0  0  0  0  0  0
    8.6787   11.3956   24.9786 C   0  0  0  0  0  0  0  0  0  0  0  0
    9.7736   12.1688   24.3637 C   0  0  0  0  0  0  0  0  0  0  0  0
    7.7310   11.7522   25.9210 C   0  0  0  0  0  0  0  0  0  0  0  0
    7.5643   13.0775   26.5919 C   0  0  0  0  0  0  0  0  0  0  0  0
    6.7715   14.1433   25.8427 C   0  0  0  0  0  0  0  0  0  0  0  0
    6.8667   15.3183   26.1948 O   0  0  0  0  0  0  0  0  0  0  0  0
    5.9342   13.7062   24.8564 N   0  0  0  0  0  0  0  0  0  0  0  0
    4.8443   14.4607   24.2430 C   0  0  2  0  0  0  0  0  0  0  0  0
    5.2051   15.6449   23.3341 C   0  0  0  0  0  0  0  0  0  0  0  0
    6.5545   15.8038   22.8597 N   0  0  0  0  0  0  0  0  0  0  0  0
    7.1786   15.0540   21.8884 C   0  0  0  0  0  0  0  0  0  0  0  0
    6.7237   13.9812   21.4940 O   0  0  0  0  0  0  0  0  0  0  0  0
    8.5765   15.6487   21.5094 C   0  0  2  0  0  0  0  0  0  0  0  0
    8.4962   17.4142   21.5594 Cl  0  0  0  0  0  0  0  0  0  0  0  0
    9.1590   15.2875   20.1669 C   0  0  0  0  0  0  0  0  0  0  0  0
   10.1465   14.2033   20.5132 C   0  0  1  0  0  0  0  0  0  0  0  0
   11.4591   14.6594   21.0849 C   0  0  0  0  0  0  0  0  0  0  0  0
   11.0150   15.3018   22.3857 C   0  0  0  0  0  0  0  0  0  0  0  0
    9.5382   14.9208   22.4467 C   0  0  2  0  0  0  0  0  0  0  0  0
    9.5869   13.6642   21.7205 O   0  0  0  0  0  0  0  0  0  0  0  0
    3.6738   14.6762   25.2121 C   0  0  0  0  0  0  0  0  0  0  0  0
    2.9906   15.8910   25.3574 C   0  0  0  0  0  0  0  0  0  0  0  0
    1.8342   15.9882   26.1371 C   0  0  0  0  0  0  0  0  0  0  0  0
    1.3452   14.8777   26.8300 C   0  0  0  0  0  0  0  0  0  0  0  0
    0.1712   14.9530   27.5932 C   0  0  0  0  0  0  0  0  0  0  0  0
   -0.2857   13.8412   28.2987 C   0  0  0  0  0  0  0  0  0  0  0  0
    0.4332   12.6501   28.2641 C   0  0  0  0  0  0  0  0  0  0  0  0
    1.5981   12.5605   27.5037 C   0  0  0  0  0  0  0  0  0  0  0  0
    2.0559   13.6621   26.7650 C   0  0  0  0  0  0  0  0  0  0  0  0
    3.1988   13.5789   25.9523 C   0  0  0  0  0  0  0  0  0  0  0  0
  1  2  1  0
  2  3  2  0
  3  4  1  0
  4  5  1  0
  4  6  1  0
  6  7  1  0
  6  8  2  0
  8  9  1  0
  9 10  1  0
 10 11  2  0
 10 12  1  0
 12 13  1  0
 13 14  1  1
 14 15  1  0
 15 16  1  0
 16 17  2  0
 16 18  1  0
 18 19  1  1
 18 20  1  0
 21 20  1  1
 21 22  1  0
 22 23  1  0
 24 23  1  6
 24 25  1  0
 13 26  1  0
 26 27  2  0
 27 28  1  0
 28 29  2  0
 29 30  1  0
 30 31  2  0
 31 32  1  0
 32 33  2  0
 33 34  1  0
 34 35  2  0
  8  2  1  0
 24 18  1  0
 35 26  1  0
 25 21  1  0
 34 29  1  0
M  END
>  <Crystalforms alias>  (134) 
nan

>  <original ID>  (134) 
DYEVYPDGGVNIHU-LLUKFRMWSA-N

>  <alias>  (134) 
None

>  <distance_score>  (134) 
0.437382

>  <CanonSites upload name>  (134) 
nan

>  <CanonSites alias>  (134) 
nan

>  <ConformerSites alias>  (134) 
nan

>  <observation_longname>  (134) 
nan

>  <CrystalformSites alias>  (134) 
nan

>  <tags>  (134) 
[]

>  <ref_mols>  (134) 
A1346a

>  <ref_pdb>  (134) 
A1346a

>  <Quatassemblies upload name>  (134) 
nan

>  <inchikey>  (134) 
DYEVYPDGGVNIHU-LLUKFRMWSA-N

>  <Experiment code>  (134) 
nan

>  <Quatassemblies alias>  (134) 
nan

>  <Crystalforms upload name>  (134) 
nan

>  <Centroid res>  (134) 
nan

>  <ConformerSites upload name>  (134) 
nan

>  <energy_score>  (134) 
-39.291921

>  <original SMILES>  (134) 
Cc1nn(C)c(C)c1CC(=O)N[C@H](CNC(=O)[C@]1(Cl)C[C@H]2CC[C@@H]1O2)c1ccc2ccccc2c1

>  <exports>  (134) 
nan

>  <CrystalformSites upload name>  (134) 
nan

>  <name>  (134) 
DYEVYPDGGVNIHU-LLUKFRMWSA-N

>  <HIPPO ID>  (134) 
109423

$$$$
DYEVYPDGGVNIHU-QULFXQSZSA-N
     RDKit          3D

 35 39  0  0  0  0  0  0  0  0999 V2000
    5.7214   10.0332   27.0652 C   0  0  0  0  0  0  0  0  0  0  0  0
    6.8545   10.3641   26.1687 C   0  0  0  0  0  0  0  0  0  0  0  0
    7.3455    9.4339   25.3487 N   0  0  0  0  0  0  0  0  0  0  0  0
    8.3292   10.0555   24.6740 N   0  0  0  0  0  0  0  0  0  0  0  0
    9.0512    9.3567   23.6313 C   0  0  0  0  0  0  0  0  0  0  0  0
    8.5195   11.3451   25.0963 C   0  0  0  0  0  0  0  0  0  0  0  0
    9.5547   12.2143   24.5071 C   0  0  0  0  0  0  0  0  0  0  0  0
    7.5613   11.5887   26.0625 C   0  0  0  0  0  0  0  0  0  0  0  0
    7.3391   12.8211   26.8635 C   0  0  0  0  0  0  0  0  0  0  0  0
    6.9504   14.0709   26.1124 C   0  0  0  0  0  0  0  0  0  0  0  0
    7.3612   15.1657   26.5011 O   0  0  0  0  0  0  0  0  0  0  0  0
    6.0553   13.9188   25.0853 N   0  0  0  0  0  0  0  0  0  0  0  0
    5.2028   15.0256   24.6618 C   0  0  1  0  0  0  0  0  0  0  0  0
    5.1082   15.1213   23.1240 C   0  0  0  0  0  0  0  0  0  0  0  0
    6.3365   15.6660   22.5631 N   0  0  0  0  0  0  0  0  0  0  0  0
    7.2002   14.9528   21.7665 C   0  0  0  0  0  0  0  0  0  0  0  0
    6.9184   13.7984   21.4380 O   0  0  0  0  0  0  0  0  0  0  0  0
    8.5776   15.6415   21.4876 C   0  0  2  0  0  0  0  0  0  0  0  0
    8.4197   17.3959   21.5865 Cl  0  0  0  0  0  0  0  0  0  0  0  0
    9.2468   15.3390   20.1639 C   0  0  0  0  0  0  0  0  0  0  0  0
   10.2176   14.2358   20.5187 C   0  0  1  0  0  0  0  0  0  0  0  0
   11.5077   14.6700   21.1536 C   0  0  0  0  0  0  0  0  0  0  0  0
   11.0052   15.3324   22.4233 C   0  0  0  0  0  0  0  0  0  0  0  0
    9.5331   14.9221   22.4451 C   0  0  2  0  0  0  0  0  0  0  0  0
    9.6352   13.6744   21.7058 O   0  0  0  0  0  0  0  0  0  0  0  0
    3.8347   14.9722   25.3363 C   0  0  0  0  0  0  0  0  0  0  0  0
    3.0548   16.1368   25.3763 C   0  0  0  0  0  0  0  0  0  0  0  0
    1.8087   16.1540   26.0045 C   0  0  0  0  0  0  0  0  0  0  0  0
    1.3279   15.0141   26.6578 C   0  0  0  0  0  0  0  0  0  0  0  0
    0.0968   15.0249   27.3292 C   0  0  0  0  0  0  0  0  0  0  0  0
   -0.3429   13.8966   28.0195 C   0  0  0  0  0  0  0  0  0  0  0  0
    0.4418   12.7476   28.0497 C   0  0  0  0  0  0  0  0  0  0  0  0
    1.6586   12.7163   27.3709 C   0  0  0  0  0  0  0  0  0  0  0  0
    2.1113   13.8393   26.6615 C   0  0  0  0  0  0  0  0  0  0  0  0
    3.3372   13.8247   25.9741 C   0  0  0  0  0  0  0  0  0  0  0  0
  1  2  1  0
  2  3  2  0
  3  4  1  0
  4  5  1  0
  4  6  1  0
  6  7  1  0
  6  8  2  0
  8  9  1  0
  9 10  1  0
 10 11  2  0
 10 12  1  0
 12 13  1  0
 13 14  1  6
 14 15  1  0
 15 16  1  0
 16 17  2  0
 16 18  1  0
 18 19  1  1
 18 20  1  0
 21 20  1  1
 21 22  1  0
 22 23  1  0
 24 23  1  6
 24 25  1  0
 13 26  1  0
 26 27  2  0
 27 28  1  0
 28 29  2  0
 29 30  1  0
 30 31  2  0
 31 32  1  0
 32 33  2  0
 33 34  1  0
 34 35  2  0
  8  2  1  0
 24 18  1  0
 35 26  1  0
 25 21  1  0
 34 29  1  0
M  END
>  <Crystalforms alias>  (135) 
nan

>  <original ID>  (135) 
DYEVYPDGGVNIHU-QULFXQSZSA-N

>  <alias>  (135) 
None

>  <distance_score>  (135) 
0.333613

>  <CanonSites upload name>  (135) 
nan

>  <CanonSites alias>  (135) 
nan

>  <ConformerSites alias>  (135) 
nan

>  <observation_longname>  (135) 
nan

>  <CrystalformSites alias>  (135) 
nan

>  <tags>  (135) 
[]

>  <ref_mols>  (135) 
A1346a

>  <ref_pdb>  (135) 
A1346a

>  <Quatassemblies upload name>  (135) 
nan

>  <inchikey>  (135) 
DYEVYPDGGVNIHU-QULFXQSZSA-N

>  <Experiment code>  (135) 
nan

>  <Quatassemblies alias>  (135) 
nan

>  <Crystalforms upload name>  (135) 
nan

>  <Centroid res>  (135) 
nan

>  <ConformerSites upload name>  (135) 
nan

>  <energy_score>  (135) 
-47.323639

>  <original SMILES>  (135) 
Cc1nn(C)c(C)c1CC(=O)N[C@@H](CNC(=O)[C@]1(Cl)C[C@H]2CC[C@@H]1O2)c1ccc2ccccc2c1

>  <exports>  (135) 
nan

>  <CrystalformSites upload name>  (135) 
nan

>  <name>  (135) 
DYEVYPDGGVNIHU-QULFXQSZSA-N

>  <HIPPO ID>  (135) 
109424

$$$$
DYEVYPDGGVNIHU-GJGGBTFWSA-N
     RDKit          3D

 35 39  0  0  0  0  0  0  0  0999 V2000
    5.9574   10.2688   27.1117 C   0  0  0  0  0  0  0  0  0  0  0  0
    7.0531   10.5513   26.1521 C   0  0  0  0  0  0  0  0  0  0  0  0
    7.5011    9.5766   25.3572 N   0  0  0  0  0  0  0  0  0  0  0  0
    8.4420   10.1604   24.5925 N   0  0  0  0  0  0  0  0  0  0  0  0
    9.1228    9.3867   23.5771 C   0  0  0  0  0  0  0  0  0  0  0  0
    8.6184   11.4853   24.8937 C   0  0  0  0  0  0  0  0  0  0  0  0
    9.5541   12.3645   24.1619 C   0  0  0  0  0  0  0  0  0  0  0  0
    7.7457   11.7702   25.9286 C   0  0  0  0  0  0  0  0  0  0  0  0
    7.5612   13.0818   26.6196 C   0  0  0  0  0  0  0  0  0  0  0  0
    6.8149   14.1529   25.8375 C   0  0  0  0  0  0  0  0  0  0  0  0
    6.8822   15.3249   26.2012 O   0  0  0  0  0  0  0  0  0  0  0  0
    6.0542   13.7136   24.7902 N   0  0  0  0  0  0  0  0  0  0  0  0
    4.9933   14.4622   24.1382 C   0  0  2  0  0  0  0  0  0  0  0  0
    5.4054   15.6708   23.2862 C   0  0  0  0  0  0  0  0  0  0  0  0
    6.7410   15.8254   22.7432 N   0  0  0  0  0  0  0  0  0  0  0  0
    7.3832   15.0448   21.8069 C   0  0  0  0  0  0  0  0  0  0  0  0
    7.0088   13.9046   21.5408 O   0  0  0  0  0  0  0  0  0  0  0  0
    8.6501   15.7641   21.2171 C   0  0  1  0  0  0  0  0  0  0  0  0
    8.1651   17.4580   20.7918 Cl  0  0  0  0  0  0  0  0  0  0  0  0
    9.8032   15.8181   22.2030 C   0  0  0  0  0  0  0  0  0  0  0  0
   11.0385   15.3890   21.4653 C   0  0  1  0  0  0  0  0  0  0  0  0
   11.1032   13.9475   21.2470 C   0  0  0  0  0  0  0  0  0  0  0  0
    9.8984   13.8446   20.3254 C   0  0  0  0  0  0  0  0  0  0  0  0
    9.4007   15.2095   20.0361 C   0  0  2  0  0  0  0  0  0  0  0  0
   10.6960   15.7930   20.1193 O   0  0  0  0  0  0  0  0  0  0  0  0
    3.7922   14.6694   25.0794 C   0  0  0  0  0  0  0  0  0  0  0  0
    3.1059   15.8838   25.2075 C   0  0  0  0  0  0  0  0  0  0  0  0
    1.9447   15.9917   25.9806 C   0  0  0  0  0  0  0  0  0  0  0  0
    1.4526   14.8924   26.6897 C   0  0  0  0  0  0  0  0  0  0  0  0
    0.2767   14.9800   27.4503 C   0  0  0  0  0  0  0  0  0  0  0  0
   -0.1812   13.8811   28.1754 C   0  0  0  0  0  0  0  0  0  0  0  0
    0.5403   12.6915   28.1651 C   0  0  0  0  0  0  0  0  0  0  0  0
    1.7076   12.5907   27.4088 C   0  0  0  0  0  0  0  0  0  0  0  0
    2.1652   13.6772   26.6459 C   0  0  0  0  0  0  0  0  0  0  0  0
    3.3112   13.5823   25.8338 C   0  0  0  0  0  0  0  0  0  0  0  0
  1  2  1  0
  2  3  2  0
  3  4  1  0
  4  5  1  0
  4  6  1  0
  6  7  1  0
  6  8  2  0
  8  9  1  0
  9 10  1  0
 10 11  2  0
 10 12  1  0
 12 13  1  0
 13 14  1  1
 14 15  1  0
 15 16  1  0
 16 17  2  0
 16 18  1  0
 18 19  1  6
 18 20  1  0
 21 20  1  1
 21 22  1  0
 22 23  1  0
 24 23  1  1
 24 25  1  0
 13 26  1  0
 26 27  2  0
 27 28  1  0
 28 29  2  0
 29 30  1  0
 30 31  2  0
 31 32  1  0
 32 33  2  0
 33 34  1  0
 34 35  2  0
  8  2  1  0
 24 18  1  0
 35 26  1  0
 25 21  1  0
 34 29  1  0
M  END
>  <Crystalforms alias>  (136) 
nan

>  <original ID>  (136) 
DYEVYPDGGVNIHU-GJGGBTFWSA-N

>  <alias>  (136) 
None

>  <distance_score>  (136) 
0.423065

>  <CanonSites upload name>  (136) 
nan

>  <CanonSites alias>  (136) 
nan

>  <ConformerSites alias>  (136) 
nan

>  <observation_longname>  (136) 
nan

>  <CrystalformSites alias>  (136) 
nan

>  <tags>  (136) 
[]

>  <ref_mols>  (136) 
A1346a

>  <ref_pdb>  (136) 
A1346a

>  <Quatassemblies upload name>  (136) 
nan

>  <inchikey>  (136) 
DYEVYPDGGVNIHU-GJGGBTFWSA-N

>  <Experiment code>  (136) 
nan

>  <Quatassemblies alias>  (136) 
nan

>  <Crystalforms upload name>  (136) 
nan

>  <Centroid res>  (136) 
nan

>  <ConformerSites upload name>  (136) 
nan

>  <energy_score>  (136) 
-32.293128

>  <original SMILES>  (136) 
Cc1nn(C)c(C)c1CC(=O)N[C@H](CNC(=O)[C@@]1(Cl)C[C@H]2CC[C@@H]1O2)c1ccc2ccccc2c1

>  <exports>  (136) 
nan

>  <CrystalformSites upload name>  (136) 
nan

>  <name>  (136) 
DYEVYPDGGVNIHU-GJGGBTFWSA-N

>  <HIPPO ID>  (136) 
109425

$$$$
DYEVYPDGGVNIHU-VHENIMGFSA-N
     RDKit          3D

 35 39  0  0  0  0  0  0  0  0999 V2000
    5.8310   10.0768   27.0672 C   0  0  0  0  0  0  0  0  0  0  0  0
    6.9362   10.4269   26.1419 C   0  0  0  0  0  0  0  0  0  0  0  0
    7.4248    9.5045   25.3125 N   0  0  0  0  0  0  0  0  0  0  0  0
    8.3700   10.1464   24.6017 N   0  0  0  0  0  0  0  0  0  0  0  0
    9.1012    9.4338   23.5763 C   0  0  0  0  0  0  0  0  0  0  0  0
    8.5148   11.4576   24.9769 C   0  0  0  0  0  0  0  0  0  0  0  0
    9.4620   12.3837   24.3164 C   0  0  0  0  0  0  0  0  0  0  0  0
    7.6150   11.6645   26.0082 C   0  0  0  0  0  0  0  0  0  0  0  0
    7.4109   12.8877   26.8287 C   0  0  0  0  0  0  0  0  0  0  0  0
    6.9794   14.1373   26.1066 C   0  0  0  0  0  0  0  0  0  0  0  0
    7.2999   15.2364   26.5599 O   0  0  0  0  0  0  0  0  0  0  0  0
    6.1720   13.9716   25.0124 N   0  0  0  0  0  0  0  0  0  0  0  0
    5.3119   15.0543   24.5532 C   0  0  1  0  0  0  0  0  0  0  0  0
    5.2388   15.1001   23.0112 C   0  0  0  0  0  0  0  0  0  0  0  0
    6.4555   15.6612   22.4230 N   0  0  0  0  0  0  0  0  0  0  0  0
    7.3755   14.9353   21.6966 C   0  0  0  0  0  0  0  0  0  0  0  0
    7.2382   13.7165   21.5859 O   0  0  0  0  0  0  0  0  0  0  0  0
    8.6038   15.7378   21.1720 C   0  0  1  0  0  0  0  0  0  0  0  0
    8.1047   17.4412   20.8244 Cl  0  0  0  0  0  0  0  0  0  0  0  0
    9.7048   15.7677   22.2105 C   0  0  0  0  0  0  0  0  0  0  0  0
   10.9691   15.3802   21.5118 C   0  0  1  0  0  0  0  0  0  0  0  0
   11.0318   13.9454   21.2375 C   0  0  0  0  0  0  0  0  0  0  0  0
    9.9802   13.9050   20.1396 C   0  0  0  0  0  0  0  0  0  0  0  0
    9.4139   15.2633   19.9824 C   0  0  2  0  0  0  0  0  0  0  0  0
   10.6846   15.8538   20.1766 O   0  0  0  0  0  0  0  0  0  0  0  0
    3.9384   14.9928   25.2233 C   0  0  0  0  0  0  0  0  0  0  0  0
    3.1529   16.1524   25.2672 C   0  0  0  0  0  0  0  0  0  0  0  0
    1.9070   16.1663   25.8983 C   0  0  0  0  0  0  0  0  0  0  0  0
    1.4298   15.0264   26.5533 C   0  0  0  0  0  0  0  0  0  0  0  0
    0.1985   15.0341   27.2258 C   0  0  0  0  0  0  0  0  0  0  0  0
   -0.2373   13.9057   27.9182 C   0  0  0  0  0  0  0  0  0  0  0  0
    0.5532   12.7611   27.9522 C   0  0  0  0  0  0  0  0  0  0  0  0
    1.7713   12.7347   27.2746 C   0  0  0  0  0  0  0  0  0  0  0  0
    2.2185   13.8557   26.5574 C   0  0  0  0  0  0  0  0  0  0  0  0
    3.4436   13.8446   25.8642 C   0  0  0  0  0  0  0  0  0  0  0  0
  1  2  1  0
  2  3  2  0
  3  4  1  0
  4  5  1  0
  4  6  1  0
  6  7  1  0
  6  8  2  0
  8  9  1  0
  9 10  1  0
 10 11  2  0
 10 12  1  0
 12 13  1  0
 13 14  1  6
 14 15  1  0
 15 16  1  0
 16 17  2  0
 16 18  1  0
 18 19  1  6
 18 20  1  0
 21 20  1  1
 21 22  1  0
 22 23  1  0
 24 23  1  1
 24 25  1  0
 13 26  1  0
 26 27  2  0
 27 28  1  0
 28 29  2  0
 29 30  1  0
 30 31  2  0
 31 32  1  0
 32 33  2  0
 33 34  1  0
 34 35  2  0
  8  2  1  0
 24 18  1  0
 35 26  1  0
 25 21  1  0
 34 29  1  0
M  END
>  <Crystalforms alias>  (137) 
nan

>  <original ID>  (137) 
DYEVYPDGGVNIHU-VHENIMGFSA-N

>  <alias>  (137) 
None

>  <distance_score>  (137) 
0.319915

>  <CanonSites upload name>  (137) 
nan

>  <CanonSites alias>  (137) 
nan

>  <ConformerSites alias>  (137) 
nan

>  <observation_longname>  (137) 
nan

>  <CrystalformSites alias>  (137) 
nan

>  <tags>  (137) 
[]

>  <ref_mols>  (137) 
A1346a

>  <ref_pdb>  (137) 
A1346a

>  <Quatassemblies upload name>  (137) 
nan

>  <inchikey>  (137) 
DYEVYPDGGVNIHU-VHENIMGFSA-N

>  <Experiment code>  (137) 
nan

>  <Quatassemblies alias>  (137) 
nan

>  <Crystalforms upload name>  (137) 
nan

>  <Centroid res>  (137) 
nan

>  <ConformerSites upload name>  (137) 
nan

>  <energy_score>  (137) 
-64.336402

>  <original SMILES>  (137) 
Cc1nn(C)c(C)c1CC(=O)N[C@@H](CNC(=O)[C@@]1(Cl)C[C@H]2CC[C@@H]1O2)c1ccc2ccccc2c1

>  <exports>  (137) 
nan

>  <CrystalformSites upload name>  (137) 
nan

>  <name>  (137) 
DYEVYPDGGVNIHU-VHENIMGFSA-N

>  <HIPPO ID>  (137) 
109426

$$$$
DYEVYPDGGVNIHU-WDGUNVFXSA-N
     RDKit          3D

 35 39  0  0  0  0  0  0  0  0999 V2000
    5.5773   10.0069   27.1904 C   0  0  0  0  0  0  0  0  0  0  0  0
    6.7280   10.3042   26.3083 C   0  0  0  0  0  0  0  0  0  0  0  0
    7.1928    9.3660   25.4743 N   0  0  0  0  0  0  0  0  0  0  0  0
    8.2299    9.9443   24.8472 N   0  0  0  0  0  0  0  0  0  0  0  0
    8.9318    9.2693   23.7752 C   0  0  0  0  0  0  0  0  0  0  0  0
    8.4448   11.2138   25.2933 C   0  0  0  0  0  0  0  0  0  0  0  0
    9.4717   12.0804   24.7309 C   0  0  0  0  0  0  0  0  0  0  0  0
    7.4525   11.5148   26.1986 C   0  0  0  0  0  0  0  0  0  0  0  0
    7.2079   12.8375   26.8534 C   0  0  0  0  0  0  0  0  0  0  0  0
    6.8367   13.9803   25.9056 C   0  0  0  0  0  0  0  0  0  0  0  0
    7.0537   15.1481   26.2227 O   0  0  0  0  0  0  0  0  0  0  0  0
    6.1877   13.6052   24.7563 N   0  0  0  0  0  0  0  0  0  0  0  0
    5.2180   14.4250   24.0467 C   0  0  2  0  0  0  0  0  0  0  0  0
    5.7497   15.6704   23.3146 C   0  0  0  0  0  0  0  0  0  0  0  0
    7.0120   15.7484   22.5825 N   0  0  0  0  0  0  0  0  0  0  0  0
    7.7027   14.8163   21.8515 C   0  0  0  0  0  0  0  0  0  0  0  0
    7.3104   13.6530   21.7617 O   0  0  0  0  0  0  0  0  0  0  0  0
    9.0483   15.3659   21.2103 C   0  0  2  0  0  0  0  0  0  0  0  0
    8.6545   16.8930   20.3374 Cl  0  0  0  0  0  0  0  0  0  0  0  0
    9.8238   14.4151   20.3184 C   0  0  0  0  0  0  0  0  0  0  0  0
   11.1305   14.1703   21.0680 C   0  0  2  0  0  0  0  0  0  0  0  0
   10.9145   13.5146   22.4250 C   0  0  0  0  0  0  0  0  0  0  0  0
   10.3589   14.6663   23.2609 C   0  0  0  0  0  0  0  0  0  0  0  0
   10.1640   15.7072   22.1906 C   0  0  1  0  0  0  0  0  0  0  0  0
   11.4143   15.4775   21.5025 O   0  0  0  0  0  0  0  0  0  0  0  0
    3.9739   14.6660   24.9384 C   0  0  0  0  0  0  0  0  0  0  0  0
    3.3265   15.9031   25.0368 C   0  0  0  0  0  0  0  0  0  0  0  0
    2.1510   16.0626   25.7836 C   0  0  0  0  0  0  0  0  0  0  0  0
    1.6015   14.9924   26.4975 C   0  0  0  0  0  0  0  0  0  0  0  0
    0.4147   15.1312   27.2363 C   0  0  0  0  0  0  0  0  0  0  0  0
   -0.0966   14.0597   27.9676 C   0  0  0  0  0  0  0  0  0  0  0  0
    0.5829   12.8465   27.9871 C   0  0  0  0  0  0  0  0  0  0  0  0
    1.7596   12.6957   27.2536 C   0  0  0  0  0  0  0  0  0  0  0  0
    2.2700   13.7530   26.4816 C   0  0  0  0  0  0  0  0  0  0  0  0
    3.4287   13.6067   25.6916 C   0  0  0  0  0  0  0  0  0  0  0  0
  1  2  1  0
  2  3  2  0
  3  4  1  0
  4  5  1  0
  4  6  1  0
  6  7  1  0
  6  8  2  0
  8  9  1  0
  9 10  1  0
 10 11  2  0
 10 12  1  0
 12 13  1  0
 13 14  1  1
 14 15  1  0
 15 16  1  0
 16 17  2  0
 16 18  1  0
 18 19  1  6
 18 20  1  0
 21 20  1  6
 21 22  1  0
 22 23  1  0
 24 23  1  1
 24 25  1  0
 13 26  1  0
 26 27  2  0
 27 28  1  0
 28 29  2  0
 29 30  1  0
 30 31  2  0
 31 32  1  0
 32 33  2  0
 33 34  1  0
 34 35  2  0
  8  2  1  0
 24 18  1  0
 35 26  1  0
 25 21  1  0
 34 29  1  0
M  END
>  <Crystalforms alias>  (138) 
nan

>  <original ID>  (138) 
DYEVYPDGGVNIHU-WDGUNVFXSA-N

>  <alias>  (138) 
None

>  <distance_score>  (138) 
0.510218

>  <CanonSites upload name>  (138) 
nan

>  <CanonSites alias>  (138) 
nan

>  <ConformerSites alias>  (138) 
nan

>  <observation_longname>  (138) 
nan

>  <CrystalformSites alias>  (138) 
nan

>  <tags>  (138) 
[]

>  <ref_mols>  (138) 
A1346a

>  <ref_pdb>  (138) 
A1346a

>  <Quatassemblies upload name>  (138) 
nan

>  <inchikey>  (138) 
DYEVYPDGGVNIHU-WDGUNVFXSA-N

>  <Experiment code>  (138) 
nan

>  <Quatassemblies alias>  (138) 
nan

>  <Crystalforms upload name>  (138) 
nan

>  <Centroid res>  (138) 
nan

>  <ConformerSites upload name>  (138) 
nan

>  <energy_score>  (138) 
-42.191429

>  <original SMILES>  (138) 
Cc1nn(C)c(C)c1CC(=O)N[C@H](CNC(=O)[C@]1(Cl)C[C@@H]2CC[C@H]1O2)c1ccc2ccccc2c1

>  <exports>  (138) 
nan

>  <CrystalformSites upload name>  (138) 
nan

>  <name>  (138) 
DYEVYPDGGVNIHU-WDGUNVFXSA-N

>  <HIPPO ID>  (138) 
109427

$$$$
DYEVYPDGGVNIHU-NEGYVOTHSA-N
     RDKit          3D

 35 39  0  0  0  0  0  0  0  0999 V2000
    5.5328    9.8789   27.1569 C   0  0  0  0  0  0  0  0  0  0  0  0
    6.6786   10.2242   26.2861 C   0  0  0  0  0  0  0  0  0  0  0  0
    7.1742    9.3195   25.4363 N   0  0  0  0  0  0  0  0  0  0  0  0
    8.1922    9.9434   24.8228 N   0  0  0  0  0  0  0  0  0  0  0  0
    8.9232    9.3033   23.7481 C   0  0  0  0  0  0  0  0  0  0  0  0
    8.3818   11.2033   25.3110 C   0  0  0  0  0  0  0  0  0  0  0  0
    9.4077   12.0981   24.7881 C   0  0  0  0  0  0  0  0  0  0  0  0
    7.3838   11.4482   26.2279 C   0  0  0  0  0  0  0  0  0  0  0  0
    7.1251   12.6965   26.9984 C   0  0  0  0  0  0  0  0  0  0  0  0
    7.0010   13.9772   26.1924 C   0  0  0  0  0  0  0  0  0  0  0  0
    7.4358   15.0379   26.6428 O   0  0  0  0  0  0  0  0  0  0  0  0
    6.2938   13.8924   25.0150 N   0  0  0  0  0  0  0  0  0  0  0  0
    5.4989   15.0292   24.5532 C   0  0  1  0  0  0  0  0  0  0  0  0
    5.4980   15.1459   23.0040 C   0  0  0  0  0  0  0  0  0  0  0  0
    6.7786   15.6186   22.4400 N   0  0  0  0  0  0  0  0  0  0  0  0
    7.6978   14.7731   21.8520 C   0  0  0  0  0  0  0  0  0  0  0  0
    7.4808   13.5569   21.8711 O   0  0  0  0  0  0  0  0  0  0  0  0
    9.0129   15.3952   21.2390 C   0  0  2  0  0  0  0  0  0  0  0  0
    8.5900   16.9265   20.4048 Cl  0  0  0  0  0  0  0  0  0  0  0  0
    9.7991   14.4593   20.3295 C   0  0  0  0  0  0  0  0  0  0  0  0
   11.0922   14.1836   21.0909 C   0  0  2  0  0  0  0  0  0  0  0  0
   10.8543   13.5153   22.4401 C   0  0  0  0  0  0  0  0  0  0  0  0
   10.3166   14.6705   23.2840 C   0  0  0  0  0  0  0  0  0  0  0  0
   10.1313   15.7192   22.2188 C   0  0  1  0  0  0  0  0  0  0  0  0
   11.3859   15.4844   21.5387 O   0  0  0  0  0  0  0  0  0  0  0  0
    4.0875   14.9815   25.1661 C   0  0  0  0  0  0  0  0  0  0  0  0
    3.3001   16.1394   25.1641 C   0  0  0  0  0  0  0  0  0  0  0  0
    2.0364   16.1718   25.7637 C   0  0  0  0  0  0  0  0  0  0  0  0
    1.5336   15.0496   26.4302 C   0  0  0  0  0  0  0  0  0  0  0  0
    0.2848   15.0768   27.0713 C   0  0  0  0  0  0  0  0  0  0  0  0
   -0.1765   13.9642   27.7728 C   0  0  0  0  0  0  0  0  0  0  0  0
    0.6060   12.8165   27.8483 C   0  0  0  0  0  0  0  0  0  0  0  0
    1.8416   12.7722   27.2038 C   0  0  0  0  0  0  0  0  0  0  0  0
    2.3154   13.8769   26.4765 C   0  0  0  0  0  0  0  0  0  0  0  0
    3.5606   13.8489   25.8155 C   0  0  0  0  0  0  0  0  0  0  0  0
  1  2  1  0
  2  3  2  0
  3  4  1  0
  4  5  1  0
  4  6  1  0
  6  7  1  0
  6  8  2  0
  8  9  1  0
  9 10  1  0
 10 11  2  0
 10 12  1  0
 12 13  1  0
 13 14  1  6
 14 15  1  0
 15 16  1  0
 16 17  2  0
 16 18  1  0
 18 19  1  6
 18 20  1  0
 21 20  1  6
 21 22  1  0
 22 23  1  0
 24 23  1  1
 24 25  1  0
 13 26  1  0
 26 27  2  0
 27 28  1  0
 28 29  2  0
 29 30  1  0
 30 31  2  0
 31 32  1  0
 32 33  2  0
 33 34  1  0
 34 35  2  0
  8  2  1  0
 24 18  1  0
 35 26  1  0
 25 21  1  0
 34 29  1  0
M  END
>  <Crystalforms alias>  (139) 
nan

>  <original ID>  (139) 
DYEVYPDGGVNIHU-NEGYVOTHSA-N

>  <alias>  (139) 
None

>  <distance_score>  (139) 
0.447494

>  <CanonSites upload name>  (139) 
nan

>  <CanonSites alias>  (139) 
nan

>  <ConformerSites alias>  (139) 
nan

>  <observation_longname>  (139) 
nan

>  <CrystalformSites alias>  (139) 
nan

>  <tags>  (139) 
[]

>  <ref_mols>  (139) 
A1346a

>  <ref_pdb>  (139) 
A1346a

>  <Quatassemblies upload name>  (139) 
nan

>  <inchikey>  (139) 
DYEVYPDGGVNIHU-NEGYVOTHSA-N

>  <Experiment code>  (139) 
nan

>  <Quatassemblies alias>  (139) 
nan

>  <Crystalforms upload name>  (139) 
nan

>  <Centroid res>  (139) 
nan

>  <ConformerSites upload name>  (139) 
nan

>  <energy_score>  (139) 
-57.999922

>  <original SMILES>  (139) 
Cc1nn(C)c(C)c1CC(=O)N[C@@H](CNC(=O)[C@]1(Cl)C[C@@H]2CC[C@H]1O2)c1ccc2ccccc2c1

>  <exports>  (139) 
nan

>  <CrystalformSites upload name>  (139) 
nan

>  <name>  (139) 
DYEVYPDGGVNIHU-NEGYVOTHSA-N

>  <HIPPO ID>  (139) 
109428

$$$$
DYEVYPDGGVNIHU-UCXAEWMPSA-N
     RDKit          3D

 35 39  0  0  0  0  0  0  0  0999 V2000
    5.8161   10.1987   27.1440 C   0  0  0  0  0  0  0  0  0  0  0  0
    6.9286   10.4926   26.2089 C   0  0  0  0  0  0  0  0  0  0  0  0
    7.3907    9.5283   25.4074 N   0  0  0  0  0  0  0  0  0  0  0  0
    8.3569   10.1179   24.6834 N   0  0  0  0  0  0  0  0  0  0  0  0
    9.0488    9.3766   23.6512 C   0  0  0  0  0  0  0  0  0  0  0  0
    8.5525   11.4243   25.0381 C   0  0  0  0  0  0  0  0  0  0  0  0
    9.5419   12.2871   24.3750 C   0  0  0  0  0  0  0  0  0  0  0  0
    7.6302   11.7131   26.0250 C   0  0  0  0  0  0  0  0  0  0  0  0
    7.4287   13.0191   26.7239 C   0  0  0  0  0  0  0  0  0  0  0  0
    6.7362   14.1184   25.9277 C   0  0  0  0  0  0  0  0  0  0  0  0
    6.8755   15.2924   26.2663 O   0  0  0  0  0  0  0  0  0  0  0  0
    5.9228   13.7005   24.9140 N   0  0  0  0  0  0  0  0  0  0  0  0
    4.8718   14.4768   24.2708 C   0  0  2  0  0  0  0  0  0  0  0  0
    5.2899   15.6706   23.3991 C   0  0  0  0  0  0  0  0  0  0  0  0
    6.6542   15.8189   22.9511 N   0  0  0  0  0  0  0  0  0  0  0  0
    7.3259   14.9439   22.1369 C   0  0  0  0  0  0  0  0  0  0  0  0
    6.8833   13.8171   21.8998 O   0  0  0  0  0  0  0  0  0  0  0  0
    8.6942   15.5144   21.6037 C   0  0  1  0  0  0  0  0  0  0  0  0
    8.4890   17.2249   21.1909 Cl  0  0  0  0  0  0  0  0  0  0  0  0
    9.9051   15.2357   22.5072 C   0  0  0  0  0  0  0  0  0  0  0  0
   10.6246   14.1071   21.7979 C   0  0  2  0  0  0  0  0  0  0  0  0
   11.4585   14.6120   20.6449 C   0  0  0  0  0  0  0  0  0  0  0  0
   10.3772   15.0866   19.6761 C   0  0  0  0  0  0  0  0  0  0  0  0
    9.0889   14.7097   20.4057 C   0  0  1  0  0  0  0  0  0  0  0  0
    9.5208   13.5380   21.1076 O   0  0  0  0  0  0  0  0  0  0  0  0
    3.6766   14.6924   25.2094 C   0  0  0  0  0  0  0  0  0  0  0  0
    2.9898   15.9064   25.3363 C   0  0  0  0  0  0  0  0  0  0  0  0
    1.8253   16.0075   26.1037 C   0  0  0  0  0  0  0  0  0  0  0  0
    1.3309   14.9017   26.8016 C   0  0  0  0  0  0  0  0  0  0  0  0
    0.1530   14.9821   27.5583 C   0  0  0  0  0  0  0  0  0  0  0  0
   -0.3075   13.8754   28.2699 C   0  0  0  0  0  0  0  0  0  0  0  0
    0.4107   12.6836   28.2468 C   0  0  0  0  0  0  0  0  0  0  0  0
    1.5787   12.5882   27.4922 C   0  0  0  0  0  0  0  0  0  0  0  0
    2.0411   13.6853   26.7496 C   0  0  0  0  0  0  0  0  0  0  0  0
    3.1909   13.5974   25.9481 C   0  0  0  0  0  0  0  0  0  0  0  0
  1  2  1  0
  2  3  2  0
  3  4  1  0
  4  5  1  0
  4  6  1  0
  6  7  1  0
  6  8  2  0
  8  9  1  0
  9 10  1  0
 10 11  2  0
 10 12  1  0
 12 13  1  0
 13 14  1  1
 14 15  1  0
 15 16  1  0
 16 17  2  0
 16 18  1  0
 18 19  1  6
 18 20  1  0
 21 20  1  1
 21 22  1  0
 22 23  1  0
 24 23  1  1
 24 25  1  0
 13 26  1  0
 26 27  2  0
 27 28  1  0
 28 29  2  0
 29 30  1  0
 30 31  2  0
 31 32  1  0
 32 33  2  0
 33 34  1  0
 34 35  2  0
  8  2  1  0
 24 18  1  0
 35 26  1  0
 25 21  1  0
 34 29  1  0
M  END
>  <Crystalforms alias>  (140) 
nan

>  <original ID>  (140) 
DYEVYPDGGVNIHU-UCXAEWMPSA-N

>  <alias>  (140) 
None

>  <distance_score>  (140) 
0.399636

>  <CanonSites upload name>  (140) 
nan

>  <CanonSites alias>  (140) 
nan

>  <ConformerSites alias>  (140) 
nan

>  <observation_longname>  (140) 
nan

>  <CrystalformSites alias>  (140) 
nan

>  <tags>  (140) 
[]

>  <ref_mols>  (140) 
A1346a

>  <ref_pdb>  (140) 
A1346a

>  <Quatassemblies upload name>  (140) 
nan

>  <inchikey>  (140) 
DYEVYPDGGVNIHU-UCXAEWMPSA-N

>  <Experiment code>  (140) 
nan

>  <Quatassemblies alias>  (140) 
nan

>  <Crystalforms upload name>  (140) 
nan

>  <Centroid res>  (140) 
nan

>  <ConformerSites upload name>  (140) 
nan

>  <energy_score>  (140) 
-31.217869

>  <original SMILES>  (140) 
Cc1nn(C)c(C)c1CC(=O)N[C@H](CNC(=O)[C@@]1(Cl)C[C@@H]2CC[C@H]1O2)c1ccc2ccccc2c1

>  <exports>  (140) 
nan

>  <CrystalformSites upload name>  (140) 
nan

>  <name>  (140) 
DYEVYPDGGVNIHU-UCXAEWMPSA-N

>  <HIPPO ID>  (140) 
109429

$$$$
DYEVYPDGGVNIHU-LHUSGLCKSA-N
     RDKit          3D

 35 39  0  0  0  0  0  0  0  0999 V2000
    5.7253   10.0038   27.0689 C   0  0  0  0  0  0  0  0  0  0  0  0
    6.8502   10.3550   26.1696 C   0  0  0  0  0  0  0  0  0  0  0  0
    7.3529    9.4362   25.3438 N   0  0  0  0  0  0  0  0  0  0  0  0
    8.3153   10.0803   24.6593 N   0  0  0  0  0  0  0  0  0  0  0  0
    9.0467    9.3935   23.6156 C   0  0  0  0  0  0  0  0  0  0  0  0
    8.4817   11.3734   25.0800 C   0  0  0  0  0  0  0  0  0  0  0  0
    9.4813   12.2754   24.4795 C   0  0  0  0  0  0  0  0  0  0  0  0
    7.5384   11.5899   26.0673 C   0  0  0  0  0  0  0  0  0  0  0  0
    7.3108   12.8075   26.8887 C   0  0  0  0  0  0  0  0  0  0  0  0
    6.9511   14.0767   26.1584 C   0  0  0  0  0  0  0  0  0  0  0  0
    7.3840   15.1570   26.5633 O   0  0  0  0  0  0  0  0  0  0  0  0
    6.0463   13.9560   25.1375 N   0  0  0  0  0  0  0  0  0  0  0  0
    5.2095   15.0788   24.7342 C   0  0  1  0  0  0  0  0  0  0  0  0
    5.1277   15.2268   23.2012 C   0  0  0  0  0  0  0  0  0  0  0  0
    6.3813   15.7028   22.6339 N   0  0  0  0  0  0  0  0  0  0  0  0
    7.3398   14.8500   22.1487 C   0  0  0  0  0  0  0  0  0  0  0  0
    7.1162   13.6337   22.1502 O   0  0  0  0  0  0  0  0  0  0  0  0
    8.6784   15.5001   21.6422 C   0  0  1  0  0  0  0  0  0  0  0  0
    8.4524   17.2149   21.2784 Cl  0  0  0  0  0  0  0  0  0  0  0  0
    9.8910   15.2031   22.5397 C   0  0  0  0  0  0  0  0  0  0  0  0
   10.6185   14.0944   21.8078 C   0  0  2  0  0  0  0  0  0  0  0  0
   11.4617   14.6363   20.6779 C   0  0  0  0  0  0  0  0  0  0  0  0
   10.3843   15.1309   19.7099 C   0  0  0  0  0  0  0  0  0  0  0  0
    9.0926   14.7346   20.4186 C   0  0  1  0  0  0  0  0  0  0  0  0
    9.5318   13.5447   21.0795 O   0  0  0  0  0  0  0  0  0  0  0  0
    3.8305   15.0100   25.3865 C   0  0  0  0  0  0  0  0  0  0  0  0
    3.0373   16.1659   25.4200 C   0  0  0  0  0  0  0  0  0  0  0  0
    1.7836   16.1669   26.0327 C   0  0  0  0  0  0  0  0  0  0  0  0
    1.3082   15.0196   26.6772 C   0  0  0  0  0  0  0  0  0  0  0  0
    0.0712   15.0158   27.3375 C   0  0  0  0  0  0  0  0  0  0  0  0
   -0.3626   13.8810   28.0207 C   0  0  0  0  0  0  0  0  0  0  0  0
    0.4328   12.7393   28.0533 C   0  0  0  0  0  0  0  0  0  0  0  0
    1.6553   12.7219   27.3846 C   0  0  0  0  0  0  0  0  0  0  0  0
    2.1032   13.8526   26.6846 C   0  0  0  0  0  0  0  0  0  0  0  0
    3.3367   13.8537   26.0120 C   0  0  0  0  0  0  0  0  0  0  0  0
  1  2  1  0
  2  3  2  0
  3  4  1  0
  4  5  1  0
  4  6  1  0
  6  7  1  0
  6  8  2  0
  8  9  1  0
  9 10  1  0
 10 11  2  0
 10 12  1  0
 12 13  1  0
 13 14  1  6
 14 15  1  0
 15 16  1  0
 16 17  2  0
 16 18  1  0
 18 19  1  6
 18 20  1  0
 21 20  1  1
 21 22  1  0
 22 23  1  0
 24 23  1  1
 24 25  1  0
 13 26  1  0
 26 27  2  0
 27 28  1  0
 28 29  2  0
 29 30  1  0
 30 31  2  0
 31 32  1  0
 32 33  2  0
 33 34  1  0
 34 35  2  0
  8  2  1  0
 24 18  1  0
 35 26  1  0
 25 21  1  0
 34 29  1  0
M  END
>  <Crystalforms alias>  (141) 
nan

>  <original ID>  (141) 
DYEVYPDGGVNIHU-LHUSGLCKSA-N

>  <alias>  (141) 
None

>  <distance_score>  (141) 
0.304402

>  <CanonSites upload name>  (141) 
nan

>  <CanonSites alias>  (141) 
nan

>  <ConformerSites alias>  (141) 
nan

>  <observation_longname>  (141) 
nan

>  <CrystalformSites alias>  (141) 
nan

>  <tags>  (141) 
[]

>  <ref_mols>  (141) 
A1346a

>  <ref_pdb>  (141) 
A1346a

>  <Quatassemblies upload name>  (141) 
nan

>  <inchikey>  (141) 
DYEVYPDGGVNIHU-LHUSGLCKSA-N

>  <Experiment code>  (141) 
nan

>  <Quatassemblies alias>  (141) 
nan

>  <Crystalforms upload name>  (141) 
nan

>  <Centroid res>  (141) 
nan

>  <ConformerSites upload name>  (141) 
nan

>  <energy_score>  (141) 
-48.342269

>  <original SMILES>  (141) 
Cc1nn(C)c(C)c1CC(=O)N[C@@H](CNC(=O)[C@@]1(Cl)C[C@@H]2CC[C@H]1O2)c1ccc2ccccc2c1

>  <exports>  (141) 
nan

>  <CrystalformSites upload name>  (141) 
nan

>  <name>  (141) 
DYEVYPDGGVNIHU-LHUSGLCKSA-N

>  <HIPPO ID>  (141) 
109430

$$$$
NZVJBVJDSSUPIL-LURJTMIESA-N
     RDKit          3D

 18 18  0  0  0  0  0  0  0  0999 V2000
    9.1629    9.2483   23.1555 C   0  0  0  0  0  0  0  0  0  0  0  0
    8.8414   10.5991   23.4697 O   0  0  0  0  0  0  0  0  0  0  0  0
    7.7986   10.7379   24.3088 C   0  0  0  0  0  0  0  0  0  0  0  0
    7.0094    9.7877   24.9603 C   0  0  0  0  0  0  0  0  0  0  0  0
    6.1129   10.5021   25.7178 C   0  0  0  0  0  0  0  0  0  0  0  0
    5.1373    9.9830   26.5607 N   0  0  0  0  0  0  0  0  0  0  0  0
    4.8837   10.5516   27.7922 C   0  0  0  0  0  0  0  0  0  0  0  0
    5.4814   11.5216   28.2528 O   0  0  0  0  0  0  0  0  0  0  0  0
    3.8241    9.8373   28.6114 C   0  0  0  0  0  0  0  0  0  0  0  0
    2.6397   10.7520   28.9403 C   0  0  2  0  0  0  0  0  0  0  0  0
    3.0203   11.9690   29.7918 C   0  0  0  0  0  0  0  0  0  0  0  0
    1.5431    9.9817   29.6547 C   0  0  0  0  0  0  0  0  0  0  0  0
    1.8822    9.6659   30.9214 F   0  0  0  0  0  0  0  0  0  0  0  0
    1.2396    8.8338   29.0113 F   0  0  0  0  0  0  0  0  0  0  0  0
    0.4134   10.7218   29.7000 F   0  0  0  0  0  0  0  0  0  0  0  0
    6.3777   11.8263   25.4253 N   0  0  0  0  0  0  0  0  0  0  0  0
    5.6112   13.0002   25.7698 C   0  0  0  0  0  0  0  0  0  0  0  0
    7.4375   11.9852   24.5908 N   0  0  0  0  0  0  0  0  0  0  0  0
  1  2  1  0
  2  3  1  0
  3  4  1  0
  4  5  2  0
  5  6  1  0
  6  7  1  0
  7  8  2  0
  7  9  1  0
  9 10  1  0
 10 11  1  1
 10 12  1  0
 12 13  1  0
 12 14  1  0
 12 15  1  0
  5 16  1  0
 16 17  1  0
 16 18  1  0
 18  3  2  0
M  END
>  <Crystalforms alias>  (142) 
nan

>  <original ID>  (142) 
NZVJBVJDSSUPIL-LURJTMIESA-N

>  <alias>  (142) 
None

>  <distance_score>  (142) 
0.428639

>  <CanonSites upload name>  (142) 
nan

>  <CanonSites alias>  (142) 
nan

>  <ConformerSites alias>  (142) 
nan

>  <observation_longname>  (142) 
nan

>  <CrystalformSites alias>  (142) 
nan

>  <tags>  (142) 
['Syndirella scaffold']

>  <ref_mols>  (142) 
A1445a

>  <ref_pdb>  (142) 
A1445a

>  <Quatassemblies upload name>  (142) 
nan

>  <inchikey>  (142) 
NZVJBVJDSSUPIL-LURJTMIESA-N

>  <Experiment code>  (142) 
nan

>  <Quatassemblies alias>  (142) 
nan

>  <Crystalforms upload name>  (142) 
nan

>  <Centroid res>  (142) 
nan

>  <ConformerSites upload name>  (142) 
nan

>  <energy_score>  (142) 
-20.159401

>  <original SMILES>  (142) 
COc1cc(NC(=O)C[C@H](C)C(F)(F)F)n(C)n1

>  <exports>  (142) 
nan

>  <CrystalformSites upload name>  (142) 
nan

>  <name>  (142) 
NZVJBVJDSSUPIL-LURJTMIESA-N

>  <HIPPO ID>  (142) 
109577

$$$$
NZVJBVJDSSUPIL-ZCFIWIBFSA-N
     RDKit          3D

 18 18  0  0  0  0  0  0  0  0999 V2000
    9.1742    9.2503   23.1545 C   0  0  0  0  0  0  0  0  0  0  0  0
    8.8899   10.6044   23.4864 O   0  0  0  0  0  0  0  0  0  0  0  0
    7.8426   10.7639   24.3161 C   0  0  0  0  0  0  0  0  0  0  0  0
    6.9980    9.8311   24.9217 C   0  0  0  0  0  0  0  0  0  0  0  0
    6.1005   10.5653   25.6560 C   0  0  0  0  0  0  0  0  0  0  0  0
    5.0259   10.0916   26.3887 N   0  0  0  0  0  0  0  0  0  0  0  0
    4.6981   10.6234   27.6218 C   0  0  0  0  0  0  0  0  0  0  0  0
    5.4036   11.3984   28.2581 O   0  0  0  0  0  0  0  0  0  0  0  0
    3.3426   10.1460   28.1053 C   0  0  0  0  0  0  0  0  0  0  0  0
    2.9951   10.4971   29.5587 C   0  0  1  0  0  0  0  0  0  0  0  0
    2.9527   12.0049   29.8272 C   0  0  0  0  0  0  0  0  0  0  0  0
    1.6294    9.9059   29.8804 C   0  0  0  0  0  0  0  0  0  0  0  0
    0.6611   10.4806   29.1319 F   0  0  0  0  0  0  0  0  0  0  0  0
    1.5945    8.5778   29.6297 F   0  0  0  0  0  0  0  0  0  0  0  0
    1.3103   10.0805   31.1797 F   0  0  0  0  0  0  0  0  0  0  0  0
    6.4458   11.8831   25.4316 N   0  0  0  0  0  0  0  0  0  0  0  0
    5.7222   13.0772   25.7995 C   0  0  0  0  0  0  0  0  0  0  0  0
    7.5309   12.0174   24.6284 N   0  0  0  0  0  0  0  0  0  0  0  0
  1  2  1  0
  2  3  1  0
  3  4  1  0
  4  5  2  0
  5  6  1  0
  6  7  1  0
  7  8  2  0
  7  9  1  0
  9 10  1  0
 10 11  1  6
 10 12  1  0
 12 13  1  0
 12 14  1  0
 12 15  1  0
  5 16  1  0
 16 17  1  0
 16 18  1  0
 18  3  2  0
M  END
>  <Crystalforms alias>  (143) 
nan

>  <original ID>  (143) 
NZVJBVJDSSUPIL-ZCFIWIBFSA-N

>  <alias>  (143) 
None

>  <distance_score>  (143) 
0.237614

>  <CanonSites upload name>  (143) 
nan

>  <CanonSites alias>  (143) 
nan

>  <ConformerSites alias>  (143) 
nan

>  <observation_longname>  (143) 
nan

>  <CrystalformSites alias>  (143) 
nan

>  <tags>  (143) 
['Syndirella scaffold']

>  <ref_mols>  (143) 
A1445a

>  <ref_pdb>  (143) 
A1445a

>  <Quatassemblies upload name>  (143) 
nan

>  <inchikey>  (143) 
NZVJBVJDSSUPIL-ZCFIWIBFSA-N

>  <Experiment code>  (143) 
nan

>  <Quatassemblies alias>  (143) 
nan

>  <Crystalforms upload name>  (143) 
nan

>  <Centroid res>  (143) 
nan

>  <ConformerSites upload name>  (143) 
nan

>  <energy_score>  (143) 
-25.019429

>  <original SMILES>  (143) 
COc1cc(NC(=O)C[C@@H](C)C(F)(F)F)n(C)n1

>  <exports>  (143) 
nan

>  <CrystalformSites upload name>  (143) 
nan

>  <name>  (143) 
NZVJBVJDSSUPIL-ZCFIWIBFSA-N

>  <HIPPO ID>  (143) 
109578

$$$$
PWTFVVAIGPBUKA-YFKPBYRVSA-N
     RDKit          3D

 20 20  0  0  0  0  0  0  0  0999 V2000
    9.1280    9.3010   23.1793 C   0  0  0  0  0  0  0  0  0  0  0  0
    8.8119   10.6388   23.5553 O   0  0  0  0  0  0  0  0  0  0  0  0
    7.7662   10.7431   24.3980 C   0  0  0  0  0  0  0  0  0  0  0  0
    6.9551    9.7673   24.9790 C   0  0  0  0  0  0  0  0  0  0  0  0
    6.0334   10.4420   25.7422 C   0  0  0  0  0  0  0  0  0  0  0  0
    4.9783    9.8906   26.4589 N   0  0  0  0  0  0  0  0  0  0  0  0
    4.5940   10.3639   27.6994 C   0  0  0  0  0  0  0  0  0  0  0  0
    5.2419   11.1922   28.3400 O   0  0  0  0  0  0  0  0  0  0  0  0
    3.2594    9.8399   28.1991 C   0  0  2  0  0  0  0  0  0  0  0  0
    2.8625   10.5031   29.5190 C   0  0  0  0  0  0  0  0  0  0  0  0
    1.3854   10.3404   29.7063 C   0  0  0  0  0  0  0  0  0  0  0  0
    0.5271   10.9160   29.0601 O   0  0  0  0  0  0  0  0  0  0  0  0
    1.0672    9.4019   30.6083 O   0  0  0  0  0  0  0  0  0  0  0  0
    3.2562    8.3400   28.3601 C   0  0  0  0  0  0  0  0  0  0  0  0
    3.4986    7.6988   27.2156 F   0  0  0  0  0  0  0  0  0  0  0  0
    2.0393    7.8933   28.7568 F   0  0  0  0  0  0  0  0  0  0  0  0
    4.1586    7.9308   29.2755 F   0  0  0  0  0  0  0  0  0  0  0  0
    6.3402   11.7774   25.5624 N   0  0  0  0  0  0  0  0  0  0  0  0
    5.5864   12.9389   25.9705 C   0  0  0  0  0  0  0  0  0  0  0  0
    7.4240   11.9733   24.7654 N   0  0  0  0  0  0  0  0  0  0  0  0
  1  2  1  0
  2  3  1  0
  3  4  1  0
  4  5  2  0
  5  6  1  0
  6  7  1  0
  7  8  2  0
  7  9  1  0
  9 10  1  1
 10 11  1  0
 11 12  2  0
 11 13  1  0
  9 14  1  0
 14 15  1  0
 14 16  1  0
 14 17  1  0
  5 18  1  0
 18 19  1  0
 18 20  1  0
 20  3  2  0
M  END
>  <Crystalforms alias>  (144) 
nan

>  <original ID>  (144) 
PWTFVVAIGPBUKA-YFKPBYRVSA-N

>  <alias>  (144) 
None

>  <distance_score>  (144) 
0.442348

>  <CanonSites upload name>  (144) 
nan

>  <CanonSites alias>  (144) 
nan

>  <ConformerSites alias>  (144) 
nan

>  <observation_longname>  (144) 
nan

>  <CrystalformSites alias>  (144) 
nan

>  <tags>  (144) 
[]

>  <ref_mols>  (144) 
A1445a

>  <ref_pdb>  (144) 
A1445a

>  <Quatassemblies upload name>  (144) 
nan

>  <inchikey>  (144) 
PWTFVVAIGPBUKA-YFKPBYRVSA-N

>  <Experiment code>  (144) 
nan

>  <Quatassemblies alias>  (144) 
nan

>  <Crystalforms upload name>  (144) 
nan

>  <Centroid res>  (144) 
nan

>  <ConformerSites upload name>  (144) 
nan

>  <energy_score>  (144) 
-34.313326

>  <original SMILES>  (144) 
COc1cc(NC(=O)[C@H](CC(=O)O)C(F)(F)F)n(C)n1

>  <exports>  (144) 
nan

>  <CrystalformSites upload name>  (144) 
nan

>  <name>  (144) 
PWTFVVAIGPBUKA-YFKPBYRVSA-N

>  <HIPPO ID>  (144) 
109621

$$$$
PWTFVVAIGPBUKA-RXMQYKEDSA-N
     RDKit          3D

 20 20  0  0  0  0  0  0  0  0999 V2000
    9.1143    9.2484   23.1651 C   0  0  0  0  0  0  0  0  0  0  0  0
    8.8302   10.5995   23.5108 O   0  0  0  0  0  0  0  0  0  0  0  0
    7.8053   10.7485   24.3710 C   0  0  0  0  0  0  0  0  0  0  0  0
    6.9931    9.8095   25.0104 C   0  0  0  0  0  0  0  0  0  0  0  0
    6.1355   10.5330   25.8047 C   0  0  0  0  0  0  0  0  0  0  0  0
    5.1354   10.0282   26.6233 N   0  0  0  0  0  0  0  0  0  0  0  0
    4.7517   10.6377   27.8056 C   0  0  0  0  0  0  0  0  0  0  0  0
    5.4234   11.4809   28.3958 O   0  0  0  0  0  0  0  0  0  0  0  0
    3.3995   10.1968   28.3177 C   0  0  1  0  0  0  0  0  0  0  0  0
    3.2542   10.4273   29.8193 C   0  0  0  0  0  0  0  0  0  0  0  0
    1.8811   10.0953   30.3306 C   0  0  0  0  0  0  0  0  0  0  0  0
    1.5676    9.0821   30.9275 O   0  0  0  0  0  0  0  0  0  0  0  0
    0.9744   11.0491   30.0699 O   0  0  0  0  0  0  0  0  0  0  0  0
    2.4117   11.0324   27.5458 C   0  0  0  0  0  0  0  0  0  0  0  0
    1.1681   10.5032   27.6054 F   0  0  0  0  0  0  0  0  0  0  0  0
    2.3476   12.3056   27.9795 F   0  0  0  0  0  0  0  0  0  0  0  0
    2.7294   11.1013   26.2460 F   0  0  0  0  0  0  0  0  0  0  0  0
    6.4360   11.8547   25.5351 N   0  0  0  0  0  0  0  0  0  0  0  0
    5.6972   13.0432   25.8909 C   0  0  0  0  0  0  0  0  0  0  0  0
    7.5001   11.9977   24.7040 N   0  0  0  0  0  0  0  0  0  0  0  0
  1  2  1  0
  2  3  1  0
  3  4  1  0
  4  5  2  0
  5  6  1  0
  6  7  1  0
  7  8  2  0
  7  9  1  0
  9 10  1  1
 10 11  1  0
 11 12  2  0
 11 13  1  0
  9 14  1  0
 14 15  1  0
 14 16  1  0
 14 17  1  0
  5 18  1  0
 18 19  1  0
 18 20  1  0
 20  3  2  0
M  END
>  <Crystalforms alias>  (145) 
nan

>  <original ID>  (145) 
PWTFVVAIGPBUKA-RXMQYKEDSA-N

>  <alias>  (145) 
None

>  <distance_score>  (145) 
0.435044

>  <CanonSites upload name>  (145) 
nan

>  <CanonSites alias>  (145) 
nan

>  <ConformerSites alias>  (145) 
nan

>  <observation_longname>  (145) 
nan

>  <CrystalformSites alias>  (145) 
nan

>  <tags>  (145) 
[]

>  <ref_mols>  (145) 
A1445a

>  <ref_pdb>  (145) 
A1445a

>  <Quatassemblies upload name>  (145) 
nan

>  <inchikey>  (145) 
PWTFVVAIGPBUKA-RXMQYKEDSA-N

>  <Experiment code>  (145) 
nan

>  <Quatassemblies alias>  (145) 
nan

>  <Crystalforms upload name>  (145) 
nan

>  <Centroid res>  (145) 
nan

>  <ConformerSites upload name>  (145) 
nan

>  <energy_score>  (145) 
-29.454289

>  <original SMILES>  (145) 
COc1cc(NC(=O)[C@@H](CC(=O)O)C(F)(F)F)n(C)n1

>  <exports>  (145) 
nan

>  <CrystalformSites upload name>  (145) 
nan

>  <name>  (145) 
PWTFVVAIGPBUKA-RXMQYKEDSA-N

>  <HIPPO ID>  (145) 
109622

$$$$
CSKHNYXMPHNKNH-RXMQYKEDSA-N
     RDKit          3D

 20 20  0  0  0  0  0  0  0  0999 V2000
    9.1848    9.2465   23.1391 C   0  0  0  0  0  0  0  0  0  0  0  0
    8.8598   10.5947   23.4588 O   0  0  0  0  0  0  0  0  0  0  0  0
    7.8143   10.7263   24.2951 C   0  0  0  0  0  0  0  0  0  0  0  0
    7.0353    9.7695   24.9474 C   0  0  0  0  0  0  0  0  0  0  0  0
    6.1320   10.4754   25.7045 C   0  0  0  0  0  0  0  0  0  0  0  0
    5.1719    9.9401   26.5543 N   0  0  0  0  0  0  0  0  0  0  0  0
    4.8892   10.5215   27.7708 C   0  0  0  0  0  0  0  0  0  0  0  0
    5.4274   11.5346   28.2100 O   0  0  0  0  0  0  0  0  0  0  0  0
    3.8609    9.7784   28.6015 C   0  0  0  0  0  0  0  0  0  0  0  0
    2.6808   10.6938   28.8907 C   0  0  2  0  0  0  0  0  0  0  0  0
    3.0854   11.8887   29.6955 C   0  0  0  0  0  0  0  0  0  0  0  0
    3.6324   11.8974   30.7843 O   0  0  0  0  0  0  0  0  0  0  0  0
    2.8095   13.0421   29.0555 O   0  0  0  0  0  0  0  0  0  0  0  0
    1.5857   10.0248   29.6653 C   0  0  0  0  0  0  0  0  0  0  0  0
    1.2106    8.8750   29.0510 F   0  0  0  0  0  0  0  0  0  0  0  0
    1.9218    9.7022   30.9277 F   0  0  0  0  0  0  0  0  0  0  0  0
    0.4877   10.8114   29.7102 F   0  0  0  0  0  0  0  0  0  0  0  0
    6.3786   11.8021   25.4048 N   0  0  0  0  0  0  0  0  0  0  0  0
    5.5943   12.9690   25.7340 C   0  0  0  0  0  0  0  0  0  0  0  0
    7.4411   11.9698   24.5755 N   0  0  0  0  0  0  0  0  0  0  0  0
  1  2  1  0
  2  3  1  0
  3  4  1  0
  4  5  2  0
  5  6  1  0
  6  7  1  0
  7  8  2  0
  7  9  1  0
 10  9  1  1
 10 11  1  0
 11 12  2  0
 11 13  1  0
 10 14  1  0
 14 15  1  0
 14 16  1  0
 14 17  1  0
  5 18  1  0
 18 19  1  0
 18 20  1  0
 20  3  2  0
M  END
>  <Crystalforms alias>  (146) 
nan

>  <original ID>  (146) 
CSKHNYXMPHNKNH-RXMQYKEDSA-N

>  <alias>  (146) 
None

>  <distance_score>  (146) 
0.43033

>  <CanonSites upload name>  (146) 
nan

>  <CanonSites alias>  (146) 
nan

>  <ConformerSites alias>  (146) 
nan

>  <observation_longname>  (146) 
nan

>  <CrystalformSites alias>  (146) 
nan

>  <tags>  (146) 
[]

>  <ref_mols>  (146) 
A1445a

>  <ref_pdb>  (146) 
A1445a

>  <Quatassemblies upload name>  (146) 
nan

>  <inchikey>  (146) 
CSKHNYXMPHNKNH-RXMQYKEDSA-N

>  <Experiment code>  (146) 
nan

>  <Quatassemblies alias>  (146) 
nan

>  <Crystalforms upload name>  (146) 
nan

>  <Centroid res>  (146) 
nan

>  <ConformerSites upload name>  (146) 
nan

>  <energy_score>  (146) 
-38.558461

>  <original SMILES>  (146) 
COc1cc(NC(=O)C[C@H](C(=O)O)C(F)(F)F)n(C)n1

>  <exports>  (146) 
nan

>  <CrystalformSites upload name>  (146) 
nan

>  <name>  (146) 
CSKHNYXMPHNKNH-RXMQYKEDSA-N

>  <HIPPO ID>  (146) 
109623

$$$$
CSKHNYXMPHNKNH-YFKPBYRVSA-N
     RDKit          3D

 20 20  0  0  0  0  0  0  0  0999 V2000
    9.1937    9.2132   23.1364 C   0  0  0  0  0  0  0  0  0  0  0  0
    8.9261   10.5687   23.4695 O   0  0  0  0  0  0  0  0  0  0  0  0
    7.8694   10.7389   24.2848 C   0  0  0  0  0  0  0  0  0  0  0  0
    7.0202    9.8124   24.8914 C   0  0  0  0  0  0  0  0  0  0  0  0
    6.1122   10.5536   25.6043 C   0  0  0  0  0  0  0  0  0  0  0  0
    5.0320   10.0826   26.3301 N   0  0  0  0  0  0  0  0  0  0  0  0
    4.6957   10.6257   27.5535 C   0  0  0  0  0  0  0  0  0  0  0  0
    5.3812   11.4354   28.1678 O   0  0  0  0  0  0  0  0  0  0  0  0
    3.3602   10.1242   28.0611 C   0  0  0  0  0  0  0  0  0  0  0  0
    3.1198   10.3909   29.5426 C   0  0  1  0  0  0  0  0  0  0  0  0
    3.2075   11.8433   29.8816 C   0  0  0  0  0  0  0  0  0  0  0  0
    2.4736   12.7329   29.4903 O   0  0  0  0  0  0  0  0  0  0  0  0
    4.2566   12.1248   30.6782 O   0  0  0  0  0  0  0  0  0  0  0  0
    1.7350    9.9509   29.9304 C   0  0  0  0  0  0  0  0  0  0  0  0
    1.4918   10.1440   31.2430 F   0  0  0  0  0  0  0  0  0  0  0  0
    0.7681   10.5678   29.2201 F   0  0  0  0  0  0  0  0  0  0  0  0
    1.5907    8.6205   29.6954 F   0  0  0  0  0  0  0  0  0  0  0  0
    6.4586   11.8704   25.3706 N   0  0  0  0  0  0  0  0  0  0  0  0
    5.7298   13.0690   25.7159 C   0  0  0  0  0  0  0  0  0  0  0  0
    7.5564   11.9952   24.5806 N   0  0  0  0  0  0  0  0  0  0  0  0
  1  2  1  0
  2  3  1  0
  3  4  1  0
  4  5  2  0
  5  6  1  0
  6  7  1  0
  7  8  2  0
  7  9  1  0
 10  9  1  6
 10 11  1  0
 11 12  2  0
 11 13  1  0
 10 14  1  0
 14 15  1  0
 14 16  1  0
 14 17  1  0
  5 18  1  0
 18 19  1  0
 18 20  1  0
 20  3  2  0
M  END
>  <Crystalforms alias>  (147) 
nan

>  <original ID>  (147) 
CSKHNYXMPHNKNH-YFKPBYRVSA-N

>  <alias>  (147) 
None

>  <distance_score>  (147) 
0.216959

>  <CanonSites upload name>  (147) 
nan

>  <CanonSites alias>  (147) 
nan

>  <ConformerSites alias>  (147) 
nan

>  <observation_longname>  (147) 
nan

>  <CrystalformSites alias>  (147) 
nan

>  <tags>  (147) 
[]

>  <ref_mols>  (147) 
A1445a

>  <ref_pdb>  (147) 
A1445a

>  <Quatassemblies upload name>  (147) 
nan

>  <inchikey>  (147) 
CSKHNYXMPHNKNH-YFKPBYRVSA-N

>  <Experiment code>  (147) 
nan

>  <Quatassemblies alias>  (147) 
nan

>  <Crystalforms upload name>  (147) 
nan

>  <Centroid res>  (147) 
nan

>  <ConformerSites upload name>  (147) 
nan

>  <energy_score>  (147) 
-31.167915

>  <original SMILES>  (147) 
COc1cc(NC(=O)C[C@@H](C(=O)O)C(F)(F)F)n(C)n1

>  <exports>  (147) 
nan

>  <CrystalformSites upload name>  (147) 
nan

>  <name>  (147) 
CSKHNYXMPHNKNH-YFKPBYRVSA-N

>  <HIPPO ID>  (147) 
109624

$$$$
HCDZQHMWXHMBOO-ZETCQYMHSA-N
     RDKit          3D

 24 24  0  0  0  0  0  0  0  0999 V2000
    4.5963    8.9980   25.9958 C   0  0  0  0  0  0  0  0  0  0  0  0
    5.8404    9.3360   26.5206 O   0  0  0  0  0  0  0  0  0  0  0  0
    6.6547    9.6229   25.5114 C   0  0  0  0  0  0  0  0  0  0  0  0
    7.2655    8.7467   24.9297 O   0  0  0  0  0  0  0  0  0  0  0  0
    6.7271   11.0244   25.2736 C   0  0  0  0  0  0  0  0  0  0  0  0
    7.4939   11.6608   24.2885 C   0  0  0  0  0  0  0  0  0  0  0  0
    8.2983   11.1857   23.3225 O   0  0  0  0  0  0  0  0  0  0  0  0
    9.1315   10.1020   23.6673 C   0  0  0  0  0  0  0  0  0  0  0  0
    8.9663    8.8610   22.8147 C   0  0  0  0  0  0  0  0  0  0  0  0
    9.6564    7.7726   23.4002 O   0  0  0  0  0  0  0  0  0  0  0  0
    7.2136   12.9534   24.1775 N   0  0  0  0  0  0  0  0  0  0  0  0
    6.2346   13.1413   25.0818 N   0  0  0  0  0  0  0  0  0  0  0  0
    5.6640   14.4527   25.2326 C   0  0  0  0  0  0  0  0  0  0  0  0
    5.8984   12.0206   25.7995 C   0  0  0  0  0  0  0  0  0  0  0  0
    4.7882   11.9713   26.6646 N   0  0  0  0  0  0  0  0  0  0  0  0
    4.8397   11.3895   27.9210 C   0  0  0  0  0  0  0  0  0  0  0  0
    5.8153   11.4492   28.6626 O   0  0  0  0  0  0  0  0  0  0  0  0
    3.5764   10.6650   28.3720 C   0  0  0  0  0  0  0  0  0  0  0  0
    2.5982   11.4205   29.2489 C   0  0  2  0  0  0  0  0  0  0  0  0
    3.2655   12.1934   30.3797 C   0  0  0  0  0  0  0  0  0  0  0  0
    1.5533   10.4543   29.8067 C   0  0  0  0  0  0  0  0  0  0  0  0
    2.0069    9.7648   30.8724 F   0  0  0  0  0  0  0  0  0  0  0  0
    0.4584   11.1412   30.1941 F   0  0  0  0  0  0  0  0  0  0  0  0
    1.1468    9.5538   28.8832 F   0  0  0  0  0  0  0  0  0  0  0  0
  1  2  1  0
  2  3  1  0
  3  4  2  0
  3  5  1  0
  5  6  1  0
  6  7  1  0
  7  8  1  0
  8  9  1  0
  9 10  1  0
  6 11  2  0
 11 12  1  0
 12 13  1  0
 12 14  1  0
 14 15  1  0
 15 16  1  0
 16 17  2  0
 16 18  1  0
 18 19  1  0
 19 20  1  1
 19 21  1  0
 21 22  1  0
 21 23  1  0
 21 24  1  0
 14  5  2  0
M  END
>  <Crystalforms alias>  (148) 
nan

>  <original ID>  (148) 
HCDZQHMWXHMBOO-ZETCQYMHSA-N

>  <alias>  (148) 
None

>  <distance_score>  (148) 
1.099323

>  <CanonSites upload name>  (148) 
nan

>  <CanonSites alias>  (148) 
nan

>  <ConformerSites alias>  (148) 
nan

>  <observation_longname>  (148) 
nan

>  <CrystalformSites alias>  (148) 
nan

>  <tags>  (148) 
[]

>  <ref_mols>  (148) 
A1445a

>  <ref_pdb>  (148) 
A1445a

>  <Quatassemblies upload name>  (148) 
nan

>  <inchikey>  (148) 
HCDZQHMWXHMBOO-ZETCQYMHSA-N

>  <Experiment code>  (148) 
nan

>  <Quatassemblies alias>  (148) 
nan

>  <Crystalforms upload name>  (148) 
nan

>  <Centroid res>  (148) 
nan

>  <ConformerSites upload name>  (148) 
nan

>  <energy_score>  (148) 
24.74483

>  <original SMILES>  (148) 
COC(=O)c1c(OCCO)nn(C)c1NC(=O)C[C@H](C)C(F)(F)F

>  <exports>  (148) 
nan

>  <CrystalformSites upload name>  (148) 
nan

>  <name>  (148) 
HCDZQHMWXHMBOO-ZETCQYMHSA-N

>  <HIPPO ID>  (148) 
109842

$$$$
HCDZQHMWXHMBOO-SSDOTTSWSA-N
     RDKit          3D

 24 24  0  0  0  0  0  0  0  0999 V2000
    4.5609    9.0238   26.5470 C   0  0  0  0  0  0  0  0  0  0  0  0
    5.1035    9.0872   25.2438 O   0  0  0  0  0  0  0  0  0  0  0  0
    6.3906    9.4861   25.2202 C   0  0  0  0  0  0  0  0  0  0  0  0
    7.2737    8.6565   25.1086 O   0  0  0  0  0  0  0  0  0  0  0  0
    6.6203   10.9003   25.1462 C   0  0  0  0  0  0  0  0  0  0  0  0
    7.5982   11.5507   24.3474 C   0  0  0  0  0  0  0  0  0  0  0  0
    8.5075   11.1279   23.4483 O   0  0  0  0  0  0  0  0  0  0  0  0
    9.1985    9.9391   23.7479 C   0  0  0  0  0  0  0  0  0  0  0  0
    8.9404    8.8496   22.7543 C   0  0  0  0  0  0  0  0  0  0  0  0
    9.5602    7.6621   23.1763 O   0  0  0  0  0  0  0  0  0  0  0  0
    7.4589   12.8714   24.3345 N   0  0  0  0  0  0  0  0  0  0  0  0
    6.3940   13.0826   25.1145 N   0  0  0  0  0  0  0  0  0  0  0  0
    5.9529   14.4339   25.3435 C   0  0  0  0  0  0  0  0  0  0  0  0
    5.8579   11.9455   25.6615 C   0  0  0  0  0  0  0  0  0  0  0  0
    4.6875   11.9966   26.4146 N   0  0  0  0  0  0  0  0  0  0  0  0
    4.6522   11.6155   27.7502 C   0  0  0  0  0  0  0  0  0  0  0  0
    5.6253   11.3109   28.4279 O   0  0  0  0  0  0  0  0  0  0  0  0
    3.2227   11.5806   28.2933 C   0  0  0  0  0  0  0  0  0  0  0  0
    3.1100   10.8527   29.6425 C   0  0  1  0  0  0  0  0  0  0  0  0
    3.3973   11.8420   30.7699 C   0  0  0  0  0  0  0  0  0  0  0  0
    1.7263   10.2405   29.8114 C   0  0  0  0  0  0  0  0  0  0  0  0
    1.5491    9.7563   31.0588 F   0  0  0  0  0  0  0  0  0  0  0  0
    0.7569   11.1497   29.5751 F   0  0  0  0  0  0  0  0  0  0  0  0
    1.5347    9.2136   28.9526 F   0  0  0  0  0  0  0  0  0  0  0  0
  1  2  1  0
  2  3  1  0
  3  4  2  0
  3  5  1  0
  5  6  1  0
  6  7  1  0
  7  8  1  0
  8  9  1  0
  9 10  1  0
  6 11  2  0
 11 12  1  0
 12 13  1  0
 12 14  1  0
 14 15  1  0
 15 16  1  0
 16 17  2  0
 16 18  1  0
 18 19  1  0
 19 20  1  1
 19 21  1  0
 21 22  1  0
 21 23  1  0
 21 24  1  0
 14  5  2  0
M  END
>  <Crystalforms alias>  (149) 
nan

>  <original ID>  (149) 
HCDZQHMWXHMBOO-SSDOTTSWSA-N

>  <alias>  (149) 
None

>  <distance_score>  (149) 
1.029079

>  <CanonSites upload name>  (149) 
nan

>  <CanonSites alias>  (149) 
nan

>  <ConformerSites alias>  (149) 
nan

>  <observation_longname>  (149) 
nan

>  <CrystalformSites alias>  (149) 
nan

>  <tags>  (149) 
[]

>  <ref_mols>  (149) 
A1445a

>  <ref_pdb>  (149) 
A1445a

>  <Quatassemblies upload name>  (149) 
nan

>  <inchikey>  (149) 
HCDZQHMWXHMBOO-SSDOTTSWSA-N

>  <Experiment code>  (149) 
nan

>  <Quatassemblies alias>  (149) 
nan

>  <Crystalforms upload name>  (149) 
nan

>  <Centroid res>  (149) 
nan

>  <ConformerSites upload name>  (149) 
nan

>  <energy_score>  (149) 
-11.095973

>  <original SMILES>  (149) 
COC(=O)c1c(OCCO)nn(C)c1NC(=O)C[C@@H](C)C(F)(F)F

>  <exports>  (149) 
nan

>  <CrystalformSites upload name>  (149) 
nan

>  <name>  (149) 
HCDZQHMWXHMBOO-SSDOTTSWSA-N

>  <HIPPO ID>  (149) 
109843

$$$$
IEDWRJNGDMEOGT-ZCFIWIBFSA-N
     RDKit          3D

 26 26  0  0  0  0  0  0  0  0999 V2000
    8.4506    8.4466   24.2177 C   0  0  0  0  0  0  0  0  0  0  0  0
    8.0286    9.5863   24.8969 O   0  0  0  0  0  0  0  0  0  0  0  0
    6.7155    9.6996   25.0868 C   0  0  0  0  0  0  0  0  0  0  0  0
    5.8762    8.8278   24.9792 O   0  0  0  0  0  0  0  0  0  0  0  0
    6.4203   11.0359   25.4279 C   0  0  0  0  0  0  0  0  0  0  0  0
    7.2228   12.1637   25.2633 C   0  0  0  0  0  0  0  0  0  0  0  0
    8.4670   12.2367   24.7783 O   0  0  0  0  0  0  0  0  0  0  0  0
    8.4527   11.8126   23.4392 C   0  0  0  0  0  0  0  0  0  0  0  0
    9.6770   11.0093   23.1138 C   0  0  0  0  0  0  0  0  0  0  0  0
    9.4902    9.8869   22.2539 O   0  0  0  0  0  0  0  0  0  0  0  0
    6.6790   13.2875   25.6937 N   0  0  0  0  0  0  0  0  0  0  0  0
    5.4889   12.8598   26.1622 N   0  0  0  0  0  0  0  0  0  0  0  0
    4.5427   13.8466   26.5899 C   0  0  0  0  0  0  0  0  0  0  0  0
    5.3274   11.4985   26.0975 C   0  0  0  0  0  0  0  0  0  0  0  0
    4.3381   10.7521   26.7151 N   0  0  0  0  0  0  0  0  0  0  0  0
    4.5824   10.5489   28.0679 C   0  0  0  0  0  0  0  0  0  0  0  0
    5.5085   11.0330   28.7156 O   0  0  0  0  0  0  0  0  0  0  0  0
    3.5197    9.7559   28.7643 C   0  0  0  0  0  0  0  0  0  0  0  0
    2.4011   10.7145   29.1299 C   0  0  2  0  0  0  0  0  0  0  0  0
    2.8863   11.8429   29.9910 C   0  0  0  0  0  0  0  0  0  0  0  0
    2.9787   11.8783   31.2030 O   0  0  0  0  0  0  0  0  0  0  0  0
    3.2916   12.9024   29.2628 O   0  0  0  0  0  0  0  0  0  0  0  0
    1.3014   10.0170   29.8631 C   0  0  0  0  0  0  0  0  0  0  0  0
    1.6450    9.5767   31.0853 F   0  0  0  0  0  0  0  0  0  0  0  0
    0.2264   10.8232   29.9739 F   0  0  0  0  0  0  0  0  0  0  0  0
    0.9048    8.9301   29.1536 F   0  0  0  0  0  0  0  0  0  0  0  0
  1  2  1  0
  2  3  1  0
  3  4  2  0
  3  5  1  0
  5  6  1  0
  6  7  1  0
  7  8  1  0
  8  9  1  0
  9 10  1  0
  6 11  2  0
 11 12  1  0
 12 13  1  0
 12 14  1  0
 14 15  1  0
 15 16  1  0
 16 17  2  0
 16 18  1  0
 19 18  1  1
 19 20  1  0
 20 21  2  0
 20 22  1  0
 19 23  1  0
 23 24  1  0
 23 25  1  0
 23 26  1  0
 14  5  2  0
M  END
>  <Crystalforms alias>  (150) 
nan

>  <original ID>  (150) 
IEDWRJNGDMEOGT-ZCFIWIBFSA-N

>  <alias>  (150) 
None

>  <distance_score>  (150) 
1.358834

>  <CanonSites upload name>  (150) 
nan

>  <CanonSites alias>  (150) 
nan

>  <ConformerSites alias>  (150) 
nan

>  <observation_longname>  (150) 
nan

>  <CrystalformSites alias>  (150) 
nan

>  <tags>  (150) 
[]

>  <ref_mols>  (150) 
A1445a

>  <ref_pdb>  (150) 
A1445a

>  <Quatassemblies upload name>  (150) 
nan

>  <inchikey>  (150) 
IEDWRJNGDMEOGT-ZCFIWIBFSA-N

>  <Experiment code>  (150) 
nan

>  <Quatassemblies alias>  (150) 
nan

>  <Crystalforms upload name>  (150) 
nan

>  <Centroid res>  (150) 
nan

>  <ConformerSites upload name>  (150) 
nan

>  <energy_score>  (150) 
-29.210016

>  <original SMILES>  (150) 
COC(=O)c1c(OCCO)nn(C)c1NC(=O)C[C@H](C(=O)O)C(F)(F)F

>  <exports>  (150) 
nan

>  <CrystalformSites upload name>  (150) 
nan

>  <name>  (150) 
IEDWRJNGDMEOGT-ZCFIWIBFSA-N

>  <HIPPO ID>  (150) 
110027

$$$$
IEDWRJNGDMEOGT-LURJTMIESA-N
     RDKit          3D

 26 26  0  0  0  0  0  0  0  0999 V2000
    7.0986    8.9369   23.6506 C   0  0  0  0  0  0  0  0  0  0  0  0
    7.5631    8.8879   24.9564 O   0  0  0  0  0  0  0  0  0  0  0  0
    6.7341    9.7201   25.6315 C   0  0  0  0  0  0  0  0  0  0  0  0
    5.8563    9.2680   26.3429 O   0  0  0  0  0  0  0  0  0  0  0  0
    6.8639   11.1201   25.3339 C   0  0  0  0  0  0  0  0  0  0  0  0
    7.6834   11.8053   24.3923 C   0  0  0  0  0  0  0  0  0  0  0  0
    8.5229   11.3510   23.4193 O   0  0  0  0  0  0  0  0  0  0  0  0
    9.5037   10.4218   23.8423 C   0  0  0  0  0  0  0  0  0  0  0  0
    9.8874    9.1343   23.1152 C   0  0  0  0  0  0  0  0  0  0  0  0
    9.8005    9.2816   21.7394 O   0  0  0  0  0  0  0  0  0  0  0  0
    7.3205   13.0730   24.2377 N   0  0  0  0  0  0  0  0  0  0  0  0
    6.2449   13.1937   25.0413 N   0  0  0  0  0  0  0  0  0  0  0  0
    5.5634   14.4573   25.1199 C   0  0  0  0  0  0  0  0  0  0  0  0
    5.9165   12.0531   25.7217 C   0  0  0  0  0  0  0  0  0  0  0  0
    4.7327   11.8856   26.4346 N   0  0  0  0  0  0  0  0  0  0  0  0
    4.6876   11.2053   27.6381 C   0  0  0  0  0  0  0  0  0  0  0  0
    5.6248   11.1229   28.4277 O   0  0  0  0  0  0  0  0  0  0  0  0
    3.3395   10.5844   27.9393 C   0  0  0  0  0  0  0  0  0  0  0  0
    3.0742   10.5725   29.4423 C   0  0  1  0  0  0  0  0  0  0  0  0
    3.1539   11.9434   30.0337 C   0  0  0  0  0  0  0  0  0  0  0  0
    3.4455   12.2096   31.1873 O   0  0  0  0  0  0  0  0  0  0  0  0
    2.8511   12.9402   29.1772 O   0  0  0  0  0  0  0  0  0  0  0  0
    1.7013   10.0527   29.7492 C   0  0  0  0  0  0  0  0  0  0  0  0
    0.7357   10.7985   29.1662 F   0  0  0  0  0  0  0  0  0  0  0  0
    1.4511   10.0129   31.0742 F   0  0  0  0  0  0  0  0  0  0  0  0
    1.5472    8.7879   29.2849 F   0  0  0  0  0  0  0  0  0  0  0  0
  1  2  1  0
  2  3  1  0
  3  4  2  0
  3  5  1  0
  5  6  1  0
  6  7  1  0
  7  8  1  0
  8  9  1  0
  9 10  1  0
  6 11  2  0
 11 12  1  0
 12 13  1  0
 12 14  1  0
 14 15  1  0
 15 16  1  0
 16 17  2  0
 16 18  1  0
 19 18  1  6
 19 20  1  0
 20 21  2  0
 20 22  1  0
 19 23  1  0
 23 24  1  0
 23 25  1  0
 23 26  1  0
 14  5  2  0
M  END
>  <Crystalforms alias>  (151) 
nan

>  <original ID>  (151) 
IEDWRJNGDMEOGT-LURJTMIESA-N

>  <alias>  (151) 
None

>  <distance_score>  (151) 
0.99925

>  <CanonSites upload name>  (151) 
nan

>  <CanonSites alias>  (151) 
nan

>  <ConformerSites alias>  (151) 
nan

>  <observation_longname>  (151) 
nan

>  <CrystalformSites alias>  (151) 
nan

>  <tags>  (151) 
[]

>  <ref_mols>  (151) 
A1445a

>  <ref_pdb>  (151) 
A1445a

>  <Quatassemblies upload name>  (151) 
nan

>  <inchikey>  (151) 
IEDWRJNGDMEOGT-LURJTMIESA-N

>  <Experiment code>  (151) 
nan

>  <Quatassemblies alias>  (151) 
nan

>  <Crystalforms upload name>  (151) 
nan

>  <Centroid res>  (151) 
nan

>  <ConformerSites upload name>  (151) 
nan

>  <energy_score>  (151) 
13.533859

>  <original SMILES>  (151) 
COC(=O)c1c(OCCO)nn(C)c1NC(=O)C[C@@H](C(=O)O)C(F)(F)F

>  <exports>  (151) 
nan

>  <CrystalformSites upload name>  (151) 
nan

>  <name>  (151) 
IEDWRJNGDMEOGT-LURJTMIESA-N

>  <HIPPO ID>  (151) 
110028

$$$$
DZXJQMHBYZSLQK-LURJTMIESA-N
     RDKit          3D

 26 26  0  0  0  0  0  0  0  0999 V2000
    5.8763   10.4262   29.8818 C   0  0  0  0  0  0  0  0  0  0  0  0
    5.7116    9.4071   28.9012 O   0  0  0  0  0  0  0  0  0  0  0  0
    4.9390    9.6176   27.8007 C   0  0  0  0  0  0  0  0  0  0  0  0
    4.0146    8.8591   27.5703 O   0  0  0  0  0  0  0  0  0  0  0  0
    5.1893   10.7749   26.9821 C   0  0  0  0  0  0  0  0  0  0  0  0
    6.1849   11.0171   26.0190 C   0  0  0  0  0  0  0  0  0  0  0  0
    7.1486   10.1653   25.5983 O   0  0  0  0  0  0  0  0  0  0  0  0
    7.7743   10.5676   24.3768 C   0  0  0  0  0  0  0  0  0  0  0  0
    8.4324    9.3827   23.6874 C   0  0  0  0  0  0  0  0  0  0  0  0
    9.3655    9.8580   22.7367 O   0  0  0  0  0  0  0  0  0  0  0  0
    6.0801   12.2280   25.4710 N   0  0  0  0  0  0  0  0  0  0  0  0
    4.8365   12.6103   25.8201 N   0  0  0  0  0  0  0  0  0  0  0  0
    4.2997   13.8285   25.2667 C   0  0  0  0  0  0  0  0  0  0  0  0
    4.2628   11.7838   26.7542 C   0  0  0  0  0  0  0  0  0  0  0  0
    2.9738   11.8991   27.2623 N   0  0  0  0  0  0  0  0  0  0  0  0
    2.7764   11.6024   28.5967 C   0  0  0  0  0  0  0  0  0  0  0  0
    3.6084   11.8954   29.4540 O   0  0  0  0  0  0  0  0  0  0  0  0
    1.4658   10.9682   28.9671 C   0  0  2  0  0  0  0  0  0  0  0  0
    0.9123   11.7155   30.1809 C   0  0  0  0  0  0  0  0  0  0  0  0
   -0.4548   11.2287   30.5661 C   0  0  0  0  0  0  0  0  0  0  0  0
   -0.8972   11.1944   31.6991 O   0  0  0  0  0  0  0  0  0  0  0  0
   -1.1923   10.8501   29.5090 O   0  0  0  0  0  0  0  0  0  0  0  0
    1.7129    9.5070   29.3097 C   0  0  0  0  0  0  0  0  0  0  0  0
    1.7617    8.7492   28.2056 F   0  0  0  0  0  0  0  0  0  0  0  0
    0.6905    8.9872   30.0330 F   0  0  0  0  0  0  0  0  0  0  0  0
    2.8241    9.3027   30.0429 F   0  0  0  0  0  0  0  0  0  0  0  0
  1  2  1  0
  2  3  1  0
  3  4  2  0
  3  5  1  0
  5  6  1  0
  6  7  1  0
  7  8  1  0
  8  9  1  0
  9 10  1  0
  6 11  2  0
 11 12  1  0
 12 13  1  0
 12 14  1  0
 14 15  1  0
 15 16  1  0
 16 17  2  0
 16 18  1  0
 18 19  1  1
 19 20  1  0
 20 21  2  0
 20 22  1  0
 18 23  1  0
 23 24  1  0
 23 25  1  0
 23 26  1  0
 14  5  2  0
M  END
>  <Crystalforms alias>  (152) 
nan

>  <original ID>  (152) 
DZXJQMHBYZSLQK-LURJTMIESA-N

>  <alias>  (152) 
None

>  <distance_score>  (152) 
2.53174

>  <CanonSites upload name>  (152) 
nan

>  <CanonSites alias>  (152) 
nan

>  <ConformerSites alias>  (152) 
nan

>  <observation_longname>  (152) 
nan

>  <CrystalformSites alias>  (152) 
nan

>  <tags>  (152) 
[]

>  <ref_mols>  (152) 
A1445a

>  <ref_pdb>  (152) 
A1445a

>  <Quatassemblies upload name>  (152) 
nan

>  <inchikey>  (152) 
DZXJQMHBYZSLQK-LURJTMIESA-N

>  <Experiment code>  (152) 
nan

>  <Quatassemblies alias>  (152) 
nan

>  <Crystalforms upload name>  (152) 
nan

>  <Centroid res>  (152) 
nan

>  <ConformerSites upload name>  (152) 
nan

>  <energy_score>  (152) 
-24.85406

>  <original SMILES>  (152) 
COC(=O)c1c(OCCO)nn(C)c1NC(=O)[C@H](CC(=O)O)C(F)(F)F

>  <exports>  (152) 
nan

>  <CrystalformSites upload name>  (152) 
nan

>  <name>  (152) 
DZXJQMHBYZSLQK-LURJTMIESA-N

>  <HIPPO ID>  (152) 
110029

$$$$
DZXJQMHBYZSLQK-ZCFIWIBFSA-N
     RDKit          3D

 26 26  0  0  0  0  0  0  0  0999 V2000
    9.6420    5.7974   23.2960 C   0  0  0  0  0  0  0  0  0  0  0  0
    9.4539    7.2660   23.9644 O   0  0  0  0  0  0  0  0  0  0  0  0
    9.9018    8.5046   24.3026 C   0  0  0  0  0  0  0  0  0  0  0  0
   11.0982    8.7311   24.2241 O   0  0  0  0  0  0  0  0  0  0  0  0
    8.8363    9.7182   24.5408 C   0  0  0  0  0  0  0  0  0  0  0  0
    9.0702   10.6923   23.5825 C   0  0  0  0  0  0  0  0  0  0  0  0
    9.6313   10.4024   22.4180 O   0  0  0  0  0  0  0  0  0  0  0  0
    9.3405    9.0679   21.9920 C   0  0  0  0  0  0  0  0  0  0  0  0
    8.0002    8.4673   22.4748 C   0  0  0  0  0  0  0  0  0  0  0  0
    7.6171    7.3366   21.7802 O   0  0  0  0  0  0  0  0  0  0  0  0
    8.4057   11.8191   23.6660 N   0  0  0  0  0  0  0  0  0  0  0  0
    7.5468   11.5778   24.6580 N   0  0  0  0  0  0  0  0  0  0  0  0
    6.5524   12.6202   24.8337 C   0  0  0  0  0  0  0  0  0  0  0  0
    7.6155   10.2399   25.1295 C   0  0  0  0  0  0  0  0  0  0  0  0
    6.5443    9.7132   25.9060 N   0  0  0  0  0  0  0  0  0  0  0  0
    5.7789   10.4858   26.8032 C   0  0  0  0  0  0  0  0  0  0  0  0
    6.1567   11.5722   27.2402 O   0  0  0  0  0  0  0  0  0  0  0  0
    4.4769    9.9039   27.3294 C   0  0  1  0  0  0  0  0  0  0  0  0
    4.5923    9.4589   28.7903 C   0  0  0  0  0  0  0  0  0  0  0  0
    3.3053    9.5347   29.5732 C   0  0  0  0  0  0  0  0  0  0  0  0
    2.9697   10.4374   30.3176 O   0  0  0  0  0  0  0  0  0  0  0  0
    2.4926    8.4855   29.3678 O   0  0  0  0  0  0  0  0  0  0  0  0
    3.4482   11.0121   27.1770 C   0  0  0  0  0  0  0  0  0  0  0  0
    3.6351   12.0280   28.0421 F   0  0  0  0  0  0  0  0  0  0  0  0
    3.4707   11.5321   25.9362 F   0  0  0  0  0  0  0  0  0  0  0  0
    2.1883   10.5534   27.3799 F   0  0  0  0  0  0  0  0  0  0  0  0
  1  2  1  0
  2  3  1  0
  3  4  2  0
  3  5  1  0
  5  6  1  0
  6  7  1  0
  7  8  1  0
  8  9  1  0
  9 10  1  0
  6 11  2  0
 11 12  1  0
 12 13  1  0
 12 14  1  0
 14 15  1  0
 15 16  1  0
 16 17  2  0
 16 18  1  0
 18 19  1  1
 19 20  1  0
 20 21  2  0
 20 22  1  0
 18 23  1  0
 23 24  1  0
 23 25  1  0
 23 26  1  0
 14  5  2  0
M  END
>  <Crystalforms alias>  (153) 
nan

>  <original ID>  (153) 
DZXJQMHBYZSLQK-ZCFIWIBFSA-N

>  <alias>  (153) 
None

>  <distance_score>  (153) 
1.747959

>  <CanonSites upload name>  (153) 
nan

>  <CanonSites alias>  (153) 
nan

>  <ConformerSites alias>  (153) 
nan

>  <observation_longname>  (153) 
nan

>  <CrystalformSites alias>  (153) 
nan

>  <tags>  (153) 
[]

>  <ref_mols>  (153) 
A1445a

>  <ref_pdb>  (153) 
A1445a

>  <Quatassemblies upload name>  (153) 
nan

>  <inchikey>  (153) 
DZXJQMHBYZSLQK-ZCFIWIBFSA-N

>  <Experiment code>  (153) 
nan

>  <Quatassemblies alias>  (153) 
nan

>  <Crystalforms upload name>  (153) 
nan

>  <Centroid res>  (153) 
nan

>  <ConformerSites upload name>  (153) 
nan

>  <energy_score>  (153) 
128.359467

>  <original SMILES>  (153) 
COC(=O)c1c(OCCO)nn(C)c1NC(=O)[C@@H](CC(=O)O)C(F)(F)F

>  <exports>  (153) 
nan

>  <CrystalformSites upload name>  (153) 
nan

>  <name>  (153) 
DZXJQMHBYZSLQK-ZCFIWIBFSA-N

>  <HIPPO ID>  (153) 
110030

$$$$
VINVRWFILPAKSR-ZETCQYMHSA-N
     RDKit          3D

 14 14  0  0  0  0  0  0  0  0999 V2000
    6.2471   11.7392   25.7650 C   0  0  0  0  0  0  0  0  0  0  0  0
    7.5154   11.3540   25.2545 O   0  0  0  0  0  0  0  0  0  0  0  0
    8.3094   12.4782   24.9041 C   0  0  0  0  0  0  0  0  0  0  0  0
    7.9634   13.2506   23.6054 C   0  0  0  0  0  0  0  0  0  0  0  0
    7.0779   12.8505   22.8458 O   0  0  0  0  0  0  0  0  0  0  0  0
    8.7023   14.4117   23.3535 N   0  0  0  0  0  0  0  0  0  0  0  0
    9.8662   14.8143   24.1444 C   0  0  0  0  0  0  0  0  0  0  0  0
   11.1511   14.4695   23.4033 C   0  0  0  0  0  0  0  0  0  0  0  0
   11.1498   15.1755   22.0512 C   0  0  0  0  0  0  0  0  0  0  0  0
    9.9301   14.7105   21.2585 C   0  0  2  0  0  0  0  0  0  0  0  0
   10.0838   15.1209   19.8107 C   0  0  0  0  0  0  0  0  0  0  0  0
    9.5950   16.3169   19.4134 N   0  0  0  0  0  0  0  0  0  0  0  0
   10.7347   14.4332   19.0259 O   0  0  0  0  0  0  0  0  0  0  0  0
    8.6380   15.0389   22.0070 C   0  0  0  0  0  0  0  0  0  0  0  0
  1  2  1  0
  2  3  1  0
  3  4  1  0
  4  5  2  0
  4  6  1  0
  6  7  1  0
  7  8  1  0
  8  9  1  0
  9 10  1  0
 10 11  1  6
 11 12  1  0
 11 13  2  0
 10 14  1  0
 14  6  1  0
M  END
>  <Crystalforms alias>  (154) 
nan

>  <original ID>  (154) 
VINVRWFILPAKSR-ZETCQYMHSA-N

>  <alias>  (154) 
None

>  <distance_score>  (154) 
0.267752

>  <CanonSites upload name>  (154) 
nan

>  <CanonSites alias>  (154) 
nan

>  <ConformerSites alias>  (154) 
nan

>  <observation_longname>  (154) 
nan

>  <CrystalformSites alias>  (154) 
nan

>  <tags>  (154) 
['Syndirella scaffold']

>  <ref_mols>  (154) 
A0926a

>  <ref_pdb>  (154) 
A0926a

>  <Quatassemblies upload name>  (154) 
nan

>  <inchikey>  (154) 
VINVRWFILPAKSR-ZETCQYMHSA-N

>  <Experiment code>  (154) 
nan

>  <Quatassemblies alias>  (154) 
nan

>  <Crystalforms upload name>  (154) 
nan

>  <Centroid res>  (154) 
nan

>  <ConformerSites upload name>  (154) 
nan

>  <energy_score>  (154) 
-32.638634

>  <original SMILES>  (154) 
COCC(=O)N1CCC[C@H](C(N)=O)C1

>  <exports>  (154) 
nan

>  <CrystalformSites upload name>  (154) 
nan

>  <name>  (154) 
VINVRWFILPAKSR-ZETCQYMHSA-N

>  <HIPPO ID>  (154) 
110208

$$$$
VINVRWFILPAKSR-SSDOTTSWSA-N
     RDKit          3D

 14 14  0  0  0  0  0  0  0  0999 V2000
    6.2131   11.7365   25.8567 C   0  0  0  0  0  0  0  0  0  0  0  0
    7.4968   11.3128   25.4205 O   0  0  0  0  0  0  0  0  0  0  0  0
    8.3144   12.4052   25.0259 C   0  0  0  0  0  0  0  0  0  0  0  0
    8.0038   13.0904   23.6779 C   0  0  0  0  0  0  0  0  0  0  0  0
    7.0674   12.7173   22.9670 O   0  0  0  0  0  0  0  0  0  0  0  0
    8.8459   14.1286   23.2897 N   0  0  0  0  0  0  0  0  0  0  0  0
    9.9898   14.6092   24.0512 C   0  0  0  0  0  0  0  0  0  0  0  0
   11.2544   14.3167   23.2692 C   0  0  0  0  0  0  0  0  0  0  0  0
   11.2539   14.9923   21.8976 C   0  0  0  0  0  0  0  0  0  0  0  0
    9.8804   15.5277   21.4767 C   0  0  1  0  0  0  0  0  0  0  0  0
    9.8048   15.8257   19.9898 C   0  0  0  0  0  0  0  0  0  0  0  0
   10.2731   14.8878   19.1259 N   0  0  0  0  0  0  0  0  0  0  0  0
    9.3234   16.8773   19.5800 O   0  0  0  0  0  0  0  0  0  0  0  0
    8.7274   14.6261   21.9116 C   0  0  0  0  0  0  0  0  0  0  0  0
  1  2  1  0
  2  3  1  0
  3  4  1  0
  4  5  2  0
  4  6  1  0
  6  7  1  0
  7  8  1  0
  8  9  1  0
  9 10  1  0
 10 11  1  6
 11 12  1  0
 11 13  2  0
 10 14  1  0
 14  6  1  0
M  END
>  <Crystalforms alias>  (155) 
nan

>  <original ID>  (155) 
VINVRWFILPAKSR-SSDOTTSWSA-N

>  <alias>  (155) 
None

>  <distance_score>  (155) 
0.430856

>  <CanonSites upload name>  (155) 
nan

>  <CanonSites alias>  (155) 
nan

>  <ConformerSites alias>  (155) 
nan

>  <observation_longname>  (155) 
nan

>  <CrystalformSites alias>  (155) 
nan

>  <tags>  (155) 
['Syndirella scaffold']

>  <ref_mols>  (155) 
A0926a

>  <ref_pdb>  (155) 
A0926a

>  <Quatassemblies upload name>  (155) 
nan

>  <inchikey>  (155) 
VINVRWFILPAKSR-SSDOTTSWSA-N

>  <Experiment code>  (155) 
nan

>  <Quatassemblies alias>  (155) 
nan

>  <Crystalforms upload name>  (155) 
nan

>  <Centroid res>  (155) 
nan

>  <ConformerSites upload name>  (155) 
nan

>  <energy_score>  (155) 
-24.187421

>  <original SMILES>  (155) 
COCC(=O)N1CCC[C@@H](C(N)=O)C1

>  <exports>  (155) 
nan

>  <CrystalformSites upload name>  (155) 
nan

>  <name>  (155) 
VINVRWFILPAKSR-SSDOTTSWSA-N

>  <HIPPO ID>  (155) 
110209

$$$$
WAAUJLRBGAYWQP-RKDXNWHRSA-N
     RDKit          3D

 16 17  0  0  0  0  0  0  0  0999 V2000
   10.4440   14.8691   19.1919 N   0  0  0  0  0  0  0  0  0  0  0  0
    9.9032   15.8142   20.0060 C   0  0  0  0  0  0  0  0  0  0  0  0
    9.4190   16.8409   19.5391 O   0  0  0  0  0  0  0  0  0  0  0  0
    9.8576   15.5383   21.4990 C   0  0  2  0  0  0  0  0  0  0  0  0
   11.1782   15.0719   22.1118 C   0  0  0  0  0  0  0  0  0  0  0  0
   10.9908   14.2602   23.4040 C   0  0  0  0  0  0  0  0  0  0  0  0
    9.6455   14.5133   24.0875 C   0  0  0  0  0  0  0  0  0  0  0  0
    8.5574   14.2178   23.1694 N   0  0  0  0  0  0  0  0  0  0  0  0
    7.5196   13.3632   23.4373 C   0  0  0  0  0  0  0  0  0  0  0  0
    6.9326   12.7730   22.5214 O   0  0  0  0  0  0  0  0  0  0  0  0
    6.9441   13.2046   24.8407 C   0  0  1  0  0  0  0  0  0  0  0  0
    6.8315   11.7448   25.2281 C   0  0  0  0  0  0  0  0  0  0  0  0
    5.9036   11.8800   26.4045 C   0  0  0  0  0  0  0  0  0  0  0  0
    6.3704   13.1966   27.0138 C   0  0  0  0  0  0  0  0  0  0  0  0
    7.3177   13.7703   26.0758 O   0  0  0  0  0  0  0  0  0  0  0  0
    8.7620   14.5310   21.7587 C   0  0  0  0  0  0  0  0  0  0  0  0
  1  2  1  0
  2  3  2  0
  4  2  1  6
  4  5  1  0
  5  6  1  0
  6  7  1  0
  7  8  1  0
  8  9  1  0
  9 10  2  0
 11  9  1  6
 11 12  1  0
 12 13  1  0
 13 14  1  0
 14 15  1  0
  8 16  1  0
 16  4  1  0
 15 11  1  0
M  END
>  <Crystalforms alias>  (156) 
nan

>  <original ID>  (156) 
WAAUJLRBGAYWQP-RKDXNWHRSA-N

>  <alias>  (156) 
None

>  <distance_score>  (156) 
1.158381

>  <CanonSites upload name>  (156) 
nan

>  <CanonSites alias>  (156) 
nan

>  <ConformerSites alias>  (156) 
nan

>  <observation_longname>  (156) 
nan

>  <CrystalformSites alias>  (156) 
nan

>  <tags>  (156) 
[]

>  <ref_mols>  (156) 
A0926a

>  <ref_pdb>  (156) 
A0926a

>  <Quatassemblies upload name>  (156) 
nan

>  <inchikey>  (156) 
WAAUJLRBGAYWQP-RKDXNWHRSA-N

>  <Experiment code>  (156) 
nan

>  <Quatassemblies alias>  (156) 
nan

>  <Crystalforms upload name>  (156) 
nan

>  <Centroid res>  (156) 
nan

>  <ConformerSites upload name>  (156) 
nan

>  <energy_score>  (156) 
-32.809947

>  <original SMILES>  (156) 
NC(=O)[C@@H]1CCCN(C(=O)[C@H]2CCCO2)C1

>  <exports>  (156) 
nan

>  <CrystalformSites upload name>  (156) 
nan

>  <name>  (156) 
WAAUJLRBGAYWQP-RKDXNWHRSA-N

>  <HIPPO ID>  (156) 
111083

$$$$
WAAUJLRBGAYWQP-IUCAKERBSA-N
     RDKit          3D

 16 17  0  0  0  0  0  0  0  0999 V2000
   10.3877   15.0244   18.9529 N   0  0  0  0  0  0  0  0  0  0  0  0
    9.7299   15.6268   19.9836 C   0  0  0  0  0  0  0  0  0  0  0  0
    9.2617   16.7521   19.8820 O   0  0  0  0  0  0  0  0  0  0  0  0
    9.7256   14.8313   21.2682 C   0  0  1  0  0  0  0  0  0  0  0  0
   11.0756   15.0412   21.9681 C   0  0  0  0  0  0  0  0  0  0  0  0
   11.1055   14.3849   23.3459 C   0  0  0  0  0  0  0  0  0  0  0  0
    9.9189   14.8685   24.1700 C   0  0  0  0  0  0  0  0  0  0  0  0
    8.6908   14.5204   23.4678 N   0  0  0  0  0  0  0  0  0  0  0  0
    8.0001   13.3295   23.7037 C   0  0  0  0  0  0  0  0  0  0  0  0
    7.2180   12.8354   22.8879 O   0  0  0  0  0  0  0  0  0  0  0  0
    8.2668   12.6501   25.0707 C   0  0  2  0  0  0  0  0  0  0  0  0
    7.4974   11.3687   25.2909 C   0  0  0  0  0  0  0  0  0  0  0  0
    6.1556   11.8725   25.7561 C   0  0  0  0  0  0  0  0  0  0  0  0
    6.4973   13.1502   26.4923 C   0  0  0  0  0  0  0  0  0  0  0  0
    7.8466   13.5038   26.1454 O   0  0  0  0  0  0  0  0  0  0  0  0
    8.5495   15.2015   22.1718 C   0  0  0  0  0  0  0  0  0  0  0  0
  1  2  1  0
  2  3  2  0
  4  2  1  6
  4  5  1  0
  5  6  1  0
  6  7  1  0
  7  8  1  0
  8  9  1  0
  9 10  2  0
 11  9  1  6
 11 12  1  0
 12 13  1  0
 13 14  1  0
 14 15  1  0
  8 16  1  0
 16  4  1  0
 15 11  1  0
M  END
>  <Crystalforms alias>  (157) 
nan

>  <original ID>  (157) 
WAAUJLRBGAYWQP-IUCAKERBSA-N

>  <alias>  (157) 
None

>  <distance_score>  (157) 
0.412711

>  <CanonSites upload name>  (157) 
nan

>  <CanonSites alias>  (157) 
nan

>  <ConformerSites alias>  (157) 
nan

>  <observation_longname>  (157) 
nan

>  <CrystalformSites alias>  (157) 
nan

>  <tags>  (157) 
[]

>  <ref_mols>  (157) 
A0926a

>  <ref_pdb>  (157) 
A0926a

>  <Quatassemblies upload name>  (157) 
nan

>  <inchikey>  (157) 
WAAUJLRBGAYWQP-IUCAKERBSA-N

>  <Experiment code>  (157) 
nan

>  <Quatassemblies alias>  (157) 
nan

>  <Crystalforms upload name>  (157) 
nan

>  <Centroid res>  (157) 
nan

>  <ConformerSites upload name>  (157) 
nan

>  <energy_score>  (157) 
-36.201513

>  <original SMILES>  (157) 
NC(=O)[C@H]1CCCN(C(=O)[C@@H]2CCCO2)C1

>  <exports>  (157) 
nan

>  <CrystalformSites upload name>  (157) 
nan

>  <name>  (157) 
WAAUJLRBGAYWQP-IUCAKERBSA-N

>  <HIPPO ID>  (157) 
111084

$$$$
WAAUJLRBGAYWQP-RKDXNWHRSA-N
     RDKit          3D

 16 17  0  0  0  0  0  0  0  0999 V2000
   10.3034   14.8769   19.1007 N   0  0  0  0  0  0  0  0  0  0  0  0
    9.8191   15.8207   19.9490 C   0  0  0  0  0  0  0  0  0  0  0  0
    9.3431   16.8692   19.5254 O   0  0  0  0  0  0  0  0  0  0  0  0
    9.8727   15.5336   21.4374 C   0  0  2  0  0  0  0  0  0  0  0  0
   11.2522   15.0481   21.8954 C   0  0  0  0  0  0  0  0  0  0  0  0
   11.2236   14.3464   23.2543 C   0  0  0  0  0  0  0  0  0  0  0  0
    9.9498   14.6491   24.0226 C   0  0  0  0  0  0  0  0  0  0  0  0
    8.8077   14.1692   23.2552 N   0  0  0  0  0  0  0  0  0  0  0  0
    7.9112   13.1865   23.6650 C   0  0  0  0  0  0  0  0  0  0  0  0
    7.0578   12.7354   22.8955 O   0  0  0  0  0  0  0  0  0  0  0  0
    7.9967   12.6948   25.1288 C   0  0  1  0  0  0  0  0  0  0  0  0
    7.4313   13.7659   26.0620 C   0  0  0  0  0  0  0  0  0  0  0  0
    6.2782   13.0909   26.7712 C   0  0  0  0  0  0  0  0  0  0  0  0
    5.9696   11.9137   25.8831 C   0  0  0  0  0  0  0  0  0  0  0  0
    7.2389   11.5007   25.3762 O   0  0  0  0  0  0  0  0  0  0  0  0
    8.7584   14.5774   21.8442 C   0  0  0  0  0  0  0  0  0  0  0  0
  1  2  1  0
  2  3  2  0
  4  2  1  6
  4  5  1  0
  5  6  1  0
  6  7  1  0
  7  8  1  0
  8  9  1  0
  9 10  2  0
 11  9  1  6
 11 12  1  0
 12 13  1  0
 13 14  1  0
 14 15  1  0
  8 16  1  0
 16  4  1  0
 15 11  1  0
M  END
>  <Crystalforms alias>  (158) 
nan

>  <original ID>  (158) 
WAAUJLRBGAYWQP-RKDXNWHRSA-N

>  <alias>  (158) 
None

>  <distance_score>  (158) 
0.502283

>  <CanonSites upload name>  (158) 
nan

>  <CanonSites alias>  (158) 
nan

>  <ConformerSites alias>  (158) 
nan

>  <observation_longname>  (158) 
nan

>  <CrystalformSites alias>  (158) 
nan

>  <tags>  (158) 
[]

>  <ref_mols>  (158) 
A0926a

>  <ref_pdb>  (158) 
A0926a

>  <Quatassemblies upload name>  (158) 
nan

>  <inchikey>  (158) 
WAAUJLRBGAYWQP-RKDXNWHRSA-N

>  <Experiment code>  (158) 
nan

>  <Quatassemblies alias>  (158) 
nan

>  <Crystalforms upload name>  (158) 
nan

>  <Centroid res>  (158) 
nan

>  <ConformerSites upload name>  (158) 
nan

>  <energy_score>  (158) 
-39.295673

>  <original SMILES>  (158) 
NC(=O)[C@@H]1CCCN(C(=O)[C@H]2CCCO2)C1

>  <exports>  (158) 
nan

>  <CrystalformSites upload name>  (158) 
nan

>  <name>  (158) 
WAAUJLRBGAYWQP-RKDXNWHRSA-N

>  <HIPPO ID>  (158) 
111085

$$$$
WAAUJLRBGAYWQP-DTWKUNHWSA-N
     RDKit          3D

 16 17  0  0  0  0  0  0  0  0999 V2000
   10.3977   15.0374   18.9568 N   0  0  0  0  0  0  0  0  0  0  0  0
    9.7340   15.6283   19.9898 C   0  0  0  0  0  0  0  0  0  0  0  0
    9.2667   16.7552   19.9001 O   0  0  0  0  0  0  0  0  0  0  0  0
    9.7172   14.8184   21.2659 C   0  0  1  0  0  0  0  0  0  0  0  0
   11.0612   15.0084   21.9803 C   0  0  0  0  0  0  0  0  0  0  0  0
   11.0721   14.3252   23.3451 C   0  0  0  0  0  0  0  0  0  0  0  0
    9.8845   14.7988   24.1725 C   0  0  0  0  0  0  0  0  0  0  0  0
    8.6502   14.4987   23.4571 N   0  0  0  0  0  0  0  0  0  0  0  0
    7.8930   13.3451   23.6830 C   0  0  0  0  0  0  0  0  0  0  0  0
    7.1444   12.8612   22.8309 O   0  0  0  0  0  0  0  0  0  0  0  0
    7.9822   12.7351   25.1067 C   0  0  1  0  0  0  0  0  0  0  0  0
    7.3879   13.7239   26.1155 C   0  0  0  0  0  0  0  0  0  0  0  0
    6.2547   12.9751   26.7771 C   0  0  0  0  0  0  0  0  0  0  0  0
    5.9775   11.8554   25.8097 C   0  0  0  0  0  0  0  0  0  0  0  0
    7.2534   11.5108   25.2693 O   0  0  0  0  0  0  0  0  0  0  0  0
    8.5412   15.1948   22.1642 C   0  0  0  0  0  0  0  0  0  0  0  0
  1  2  1  0
  2  3  2  0
  4  2  1  6
  4  5  1  0
  5  6  1  0
  6  7  1  0
  7  8  1  0
  8  9  1  0
  9 10  2  0
 11  9  1  6
 11 12  1  0
 12 13  1  0
 13 14  1  0
 14 15  1  0
  8 16  1  0
 16  4  1  0
 15 11  1  0
M  END
>  <Crystalforms alias>  (159) 
nan

>  <original ID>  (159) 
WAAUJLRBGAYWQP-DTWKUNHWSA-N

>  <alias>  (159) 
None

>  <distance_score>  (159) 
0.472537

>  <CanonSites upload name>  (159) 
nan

>  <CanonSites alias>  (159) 
nan

>  <ConformerSites alias>  (159) 
nan

>  <observation_longname>  (159) 
nan

>  <CrystalformSites alias>  (159) 
nan

>  <tags>  (159) 
[]

>  <ref_mols>  (159) 
A0926a

>  <ref_pdb>  (159) 
A0926a

>  <Quatassemblies upload name>  (159) 
nan

>  <inchikey>  (159) 
WAAUJLRBGAYWQP-DTWKUNHWSA-N

>  <Experiment code>  (159) 
nan

>  <Quatassemblies alias>  (159) 
nan

>  <Crystalforms upload name>  (159) 
nan

>  <Centroid res>  (159) 
nan

>  <ConformerSites upload name>  (159) 
nan

>  <energy_score>  (159) 
-33.360268

>  <original SMILES>  (159) 
NC(=O)[C@H]1CCCN(C(=O)[C@H]2CCCO2)C1

>  <exports>  (159) 
nan

>  <CrystalformSites upload name>  (159) 
nan

>  <name>  (159) 
WAAUJLRBGAYWQP-DTWKUNHWSA-N

>  <HIPPO ID>  (159) 
111086

$$$$
XZJXCESWBMDSBO-UHFFFAOYSA-N
     RDKit          3D

 13 13  0  0  0  0  0  0  0  0999 V2000
    5.6348   11.9841   26.8887 C   0  0  0  0  0  0  0  0  0  0  0  0
    6.8779   12.2791   26.0735 C   0  0  0  0  0  0  0  0  0  0  0  0
    7.4485   11.0425   25.6678 O   0  0  0  0  0  0  0  0  0  0  0  0
    8.5413   11.1018   24.8525 C   0  0  0  0  0  0  0  0  0  0  0  0
    9.3029   12.2317   24.5622 C   0  0  0  0  0  0  0  0  0  0  0  0
   10.3776   12.1454   23.6686 C   0  0  0  0  0  0  0  0  0  0  0  0
   10.7005   10.9210   23.0784 C   0  0  0  0  0  0  0  0  0  0  0  0
   11.7583   10.7721   22.0497 C   0  0  0  0  0  0  0  0  0  0  0  0
   11.9065    9.6622   21.5378 O   0  0  0  0  0  0  0  0  0  0  0  0
   12.5784   11.9880   21.6267 C   0  0  0  0  0  0  0  0  0  0  0  0
   13.6510   11.6175   20.5939 C   0  0  0  0  0  0  0  0  0  0  0  0
    9.9661    9.7816   23.4103 C   0  0  0  0  0  0  0  0  0  0  0  0
    8.8917    9.8815   24.2827 C   0  0  0  0  0  0  0  0  0  0  0  0
  1  2  1  0
  2  3  1  0
  3  4  1  0
  4  5  2  0
  5  6  1  0
  6  7  2  0
  7  8  1  0
  8  9  2  0
  8 10  1  0
 10 11  1  0
  7 12  1  0
 12 13  2  0
 13  4  1  0
M  END
>  <Crystalforms alias>  (160) 
nan

>  <original ID>  (160) 
XZJXCESWBMDSBO-UHFFFAOYSA-N

>  <alias>  (160) 
None

>  <distance_score>  (160) 
0.364582

>  <CanonSites upload name>  (160) 
nan

>  <CanonSites alias>  (160) 
nan

>  <ConformerSites alias>  (160) 
nan

>  <observation_longname>  (160) 
nan

>  <CrystalformSites alias>  (160) 
nan

>  <tags>  (160) 
['Syndirella scaffold']

>  <ref_mols>  (160) 
A1775a

>  <ref_pdb>  (160) 
A1775a

>  <Quatassemblies upload name>  (160) 
nan

>  <inchikey>  (160) 
XZJXCESWBMDSBO-UHFFFAOYSA-N

>  <Experiment code>  (160) 
nan

>  <Quatassemblies alias>  (160) 
nan

>  <Crystalforms upload name>  (160) 
nan

>  <Centroid res>  (160) 
nan

>  <ConformerSites upload name>  (160) 
nan

>  <energy_score>  (160) 
-14.951008

>  <original SMILES>  (160) 
CCOc1ccc(C(=O)CC)cc1

>  <exports>  (160) 
nan

>  <CrystalformSites upload name>  (160) 
nan

>  <name>  (160) 
XZJXCESWBMDSBO-UHFFFAOYSA-N

>  <HIPPO ID>  (160) 
118487

$$$$
POGPSKUWSGOZRN-UHFFFAOYSA-N
     RDKit          3D

 14 14  0  0  0  0  0  0  0  0999 V2000
    5.4584   11.9881   26.9793 C   0  0  0  0  0  0  0  0  0  0  0  0
    6.7617   12.2649   26.2603 C   0  0  0  0  0  0  0  0  0  0  0  0
    7.3013   11.0240   25.8229 O   0  0  0  0  0  0  0  0  0  0  0  0
    8.4193   11.0880   25.0452 C   0  0  0  0  0  0  0  0  0  0  0  0
    8.7205    9.9084   24.3727 C   0  0  0  0  0  0  0  0  0  0  0  0
    9.7857    9.8417   23.4899 C   0  0  0  0  0  0  0  0  0  0  0  0
   10.5797   10.9681   23.2806 C   0  0  0  0  0  0  0  0  0  0  0  0
   11.6066   10.8785   22.2162 C   0  0  0  0  0  0  0  0  0  0  0  0
   11.7529    9.7794   21.6750 O   0  0  0  0  0  0  0  0  0  0  0  0
   12.4570   12.1068   21.8492 C   0  0  0  0  0  0  0  0  0  0  0  0
   13.5211   11.6865   20.8165 C   0  0  0  0  0  0  0  0  0  0  0  0
   11.7034   13.3775   21.4631 C   0  0  0  0  0  0  0  0  0  0  0  0
   10.3483   12.1218   24.0336 C   0  0  0  0  0  0  0  0  0  0  0  0
    9.2564   12.1880   24.9001 C   0  0  0  0  0  0  0  0  0  0  0  0
  1  2  1  0
  2  3  1  0
  3  4  1  0
  4  5  2  0
  5  6  1  0
  6  7  2  0
  7  8  1  0
  8  9  2  0
  8 10  1  0
 10 11  1  0
 10 12  1  0
  7 13  1  0
 13 14  2  0
 14  4  1  0
M  END
>  <Crystalforms alias>  (161) 
nan

>  <original ID>  (161) 
POGPSKUWSGOZRN-UHFFFAOYSA-N

>  <alias>  (161) 
None

>  <distance_score>  (161) 
0.949578

>  <CanonSites upload name>  (161) 
nan

>  <CanonSites alias>  (161) 
nan

>  <ConformerSites alias>  (161) 
nan

>  <observation_longname>  (161) 
nan

>  <CrystalformSites alias>  (161) 
nan

>  <tags>  (161) 
[]

>  <ref_mols>  (161) 
A1775a

>  <ref_pdb>  (161) 
A1775a

>  <Quatassemblies upload name>  (161) 
nan

>  <inchikey>  (161) 
POGPSKUWSGOZRN-UHFFFAOYSA-N

>  <Experiment code>  (161) 
nan

>  <Quatassemblies alias>  (161) 
nan

>  <Crystalforms upload name>  (161) 
nan

>  <Centroid res>  (161) 
nan

>  <ConformerSites upload name>  (161) 
nan

>  <energy_score>  (161) 
-9.812608

>  <original SMILES>  (161) 
CCOc1ccc(C(=O)C(C)C)cc1

>  <exports>  (161) 
nan

>  <CrystalformSites upload name>  (161) 
nan

>  <name>  (161) 
POGPSKUWSGOZRN-UHFFFAOYSA-N

>  <HIPPO ID>  (161) 
118490

$$$$
RAWORWZDBBYBGK-UHFFFAOYSA-N
     RDKit          3D

 14 14  0  0  0  0  0  0  0  0999 V2000
    4.5101   12.7910   26.5944 C   0  0  0  0  0  0  0  0  0  0  0  0
    5.6268   12.0753   26.7850 C   0  0  0  0  0  0  0  0  0  0  0  0
    6.8982   12.3092   26.0348 C   0  0  0  0  0  0  0  0  0  0  0  0
    7.4309   11.0549   25.6324 O   0  0  0  0  0  0  0  0  0  0  0  0
    8.5424   11.1000   24.8373 C   0  0  0  0  0  0  0  0  0  0  0  0
    8.8916    9.8774   24.2725 C   0  0  0  0  0  0  0  0  0  0  0  0
    9.9703    9.7738   23.4048 C   0  0  0  0  0  0  0  0  0  0  0  0
   10.7100   10.9106   23.0738 C   0  0  0  0  0  0  0  0  0  0  0  0
   11.7663   10.7626   22.0434 C   0  0  0  0  0  0  0  0  0  0  0  0
   11.9152    9.6515   21.5347 O   0  0  0  0  0  0  0  0  0  0  0  0
   12.5844   11.9801   21.6188 C   0  0  0  0  0  0  0  0  0  0  0  0
   13.6579   11.6128   20.5868 C   0  0  0  0  0  0  0  0  0  0  0  0
   10.3933   12.1350   23.6651 C   0  0  0  0  0  0  0  0  0  0  0  0
    9.3162   12.2253   24.5540 C   0  0  0  0  0  0  0  0  0  0  0  0
  1  2  2  0
  2  3  1  0
  3  4  1  0
  4  5  1  0
  5  6  2  0
  6  7  1  0
  7  8  2  0
  8  9  1  0
  9 10  2  0
  9 11  1  0
 11 12  1  0
  8 13  1  0
 13 14  2  0
 14  5  1  0
M  END
>  <Crystalforms alias>  (162) 
nan

>  <original ID>  (162) 
RAWORWZDBBYBGK-UHFFFAOYSA-N

>  <alias>  (162) 
None

>  <distance_score>  (162) 
0.350226

>  <CanonSites upload name>  (162) 
nan

>  <CanonSites alias>  (162) 
nan

>  <ConformerSites alias>  (162) 
nan

>  <observation_longname>  (162) 
nan

>  <CrystalformSites alias>  (162) 
nan

>  <tags>  (162) 
[]

>  <ref_mols>  (162) 
A1775a

>  <ref_pdb>  (162) 
A1775a

>  <Quatassemblies upload name>  (162) 
nan

>  <inchikey>  (162) 
RAWORWZDBBYBGK-UHFFFAOYSA-N

>  <Experiment code>  (162) 
nan

>  <Quatassemblies alias>  (162) 
nan

>  <Crystalforms upload name>  (162) 
nan

>  <Centroid res>  (162) 
nan

>  <ConformerSites upload name>  (162) 
nan

>  <energy_score>  (162) 
-10.361059

>  <original SMILES>  (162) 
C=CCOc1ccc(C(=O)CC)cc1

>  <exports>  (162) 
nan

>  <CrystalformSites upload name>  (162) 
nan

>  <name>  (162) 
RAWORWZDBBYBGK-UHFFFAOYSA-N

>  <HIPPO ID>  (162) 
118523

$$$$
YISCRASURPUSBT-UHFFFAOYSA-N
     RDKit          3D

 14 15  0  0  0  0  0  0  0  0999 V2000
    4.5678   12.5379   26.4523 C   0  0  0  0  0  0  0  0  0  0  0  0
    5.7534   11.9814   26.7279 C   0  0  0  0  0  0  0  0  0  0  0  0
    6.9969   12.2367   25.9404 C   0  0  0  0  0  0  0  0  0  0  0  0
    7.5509   10.9806   25.5788 O   0  0  0  0  0  0  0  0  0  0  0  0
    8.6425   11.0118   24.7550 C   0  0  0  0  0  0  0  0  0  0  0  0
    8.9653    9.7628   24.1957 C   0  0  0  0  0  0  0  0  0  0  0  0
   10.0263    9.6132   23.3155 C   0  0  0  0  0  0  0  0  0  0  0  0
   10.7330   10.7515   23.0087 C   0  0  0  0  0  0  0  0  0  0  0  0
   10.4581   11.9976   23.5542 C   0  0  0  0  0  0  0  0  0  0  0  0
    9.4108   12.1405   24.4503 C   0  0  0  0  0  0  0  0  0  0  0  0
   11.3828   13.0541   23.0370 C   0  0  0  0  0  0  0  0  0  0  0  0
   12.2441   12.3410   22.0011 C   0  0  0  0  0  0  0  0  0  0  0  0
   11.8029   10.8940   22.0467 C   0  0  0  0  0  0  0  0  0  0  0  0
   12.2167    9.9593   21.3838 O   0  0  0  0  0  0  0  0  0  0  0  0
  1  2  2  0
  2  3  1  0
  3  4  1  0
  4  5  1  0
  5  6  2  0
  6  7  1  0
  7  8  2  0
  8  9  1  0
  9 10  2  0
  9 11  1  0
 11 12  1  0
 12 13  1  0
 13 14  2  0
 10  5  1  0
 13  8  1  0
M  END
>  <Crystalforms alias>  (163) 
nan

>  <original ID>  (163) 
YISCRASURPUSBT-UHFFFAOYSA-N

>  <alias>  (163) 
None

>  <distance_score>  (163) 
1.111196

>  <CanonSites upload name>  (163) 
nan

>  <CanonSites alias>  (163) 
nan

>  <ConformerSites alias>  (163) 
nan

>  <observation_longname>  (163) 
nan

>  <CrystalformSites alias>  (163) 
nan

>  <tags>  (163) 
[]

>  <ref_mols>  (163) 
A1775a

>  <ref_pdb>  (163) 
A1775a

>  <Quatassemblies upload name>  (163) 
nan

>  <inchikey>  (163) 
YISCRASURPUSBT-UHFFFAOYSA-N

>  <Experiment code>  (163) 
nan

>  <Quatassemblies alias>  (163) 
nan

>  <Crystalforms upload name>  (163) 
nan

>  <Centroid res>  (163) 
nan

>  <ConformerSites upload name>  (163) 
nan

>  <energy_score>  (163) 
-17.45769

>  <original SMILES>  (163) 
C=CCOc1ccc2c(c1)CCC2=O

>  <exports>  (163) 
nan

>  <CrystalformSites upload name>  (163) 
nan

>  <name>  (163) 
YISCRASURPUSBT-UHFFFAOYSA-N

>  <HIPPO ID>  (163) 
118524

$$$$
UQVJVUWEYMWXOL-UHFFFAOYSA-N
     RDKit          3D

 14 14  0  0  0  0  0  0  0  0999 V2000
   13.5625   11.6278   20.6616 C   0  0  0  0  0  0  0  0  0  0  0  0
   12.5031   12.0122   21.7066 C   0  0  0  0  0  0  0  0  0  0  0  0
   11.6750   10.8036   22.1385 C   0  0  0  0  0  0  0  0  0  0  0  0
   11.8127    9.6914   21.6265 O   0  0  0  0  0  0  0  0  0  0  0  0
   10.6218   10.9647   23.1760 C   0  0  0  0  0  0  0  0  0  0  0  0
    9.8539    9.8422   23.4839 C   0  0  0  0  0  0  0  0  0  0  0  0
    8.7917    9.9510   24.3732 C   0  0  0  0  0  0  0  0  0  0  0  0
    8.4785   11.1605   24.9907 C   0  0  0  0  0  0  0  0  0  0  0  0
    7.4043   11.0878   25.8278 O   0  0  0  0  0  0  0  0  0  0  0  0
    6.7601   12.2742   26.2867 C   0  0  0  0  0  0  0  0  0  0  0  0
    7.1145   12.5268   27.7433 C   0  0  0  0  0  0  0  0  0  0  0  0
    5.2587   12.0665   26.1898 C   0  0  0  0  0  0  0  0  0  0  0  0
    9.2767   12.2697   24.7290 C   0  0  0  0  0  0  0  0  0  0  0  0
   10.3390   12.1780   23.8121 C   0  0  0  0  0  0  0  0  0  0  0  0
  1  2  1  0
  2  3  1  0
  3  4  2  0
  3  5  1  0
  5  6  2  0
  6  7  1  0
  7  8  2  0
  8  9  1  0
  9 10  1  0
 10 11  1  0
 10 12  1  0
  8 13  1  0
 13 14  2  0
 14  5  1  0
M  END
>  <Crystalforms alias>  (164) 
nan

>  <original ID>  (164) 
UQVJVUWEYMWXOL-UHFFFAOYSA-N

>  <alias>  (164) 
None

>  <distance_score>  (164) 
0.45238

>  <CanonSites upload name>  (164) 
nan

>  <CanonSites alias>  (164) 
nan

>  <ConformerSites alias>  (164) 
nan

>  <observation_longname>  (164) 
nan

>  <CrystalformSites alias>  (164) 
nan

>  <tags>  (164) 
[]

>  <ref_mols>  (164) 
A1775a

>  <ref_pdb>  (164) 
A1775a

>  <Quatassemblies upload name>  (164) 
nan

>  <inchikey>  (164) 
UQVJVUWEYMWXOL-UHFFFAOYSA-N

>  <Experiment code>  (164) 
nan

>  <Quatassemblies alias>  (164) 
nan

>  <Crystalforms upload name>  (164) 
nan

>  <Centroid res>  (164) 
nan

>  <ConformerSites upload name>  (164) 
nan

>  <energy_score>  (164) 
-13.786392

>  <original SMILES>  (164) 
CCC(=O)c1ccc(OC(C)C)cc1

>  <exports>  (164) 
nan

>  <CrystalformSites upload name>  (164) 
nan

>  <name>  (164) 
UQVJVUWEYMWXOL-UHFFFAOYSA-N

>  <HIPPO ID>  (164) 
118529

$$$$
NLUPNAKVXJFJDD-UHFFFAOYSA-N
     RDKit          3D

 14 15  0  0  0  0  0  0  0  0999 V2000
    7.1193   12.5121   27.7263 C   0  0  0  0  0  0  0  0  0  0  0  0
    6.8167   12.2647   26.2570 C   0  0  0  0  0  0  0  0  0  0  0  0
    5.3155   12.0931   26.1034 C   0  0  0  0  0  0  0  0  0  0  0  0
    7.4511   11.0626   25.8252 O   0  0  0  0  0  0  0  0  0  0  0  0
    8.5194   11.1072   24.9737 C   0  0  0  0  0  0  0  0  0  0  0  0
    8.7833    9.8745   24.3445 C   0  0  0  0  0  0  0  0  0  0  0  0
    9.8241    9.7111   23.4396 C   0  0  0  0  0  0  0  0  0  0  0  0
   10.5855   10.8226   23.1781 C   0  0  0  0  0  0  0  0  0  0  0  0
   10.3825   12.0486   23.8012 C   0  0  0  0  0  0  0  0  0  0  0  0
    9.3495   12.2020   24.7219 C   0  0  0  0  0  0  0  0  0  0  0  0
   11.4048   13.0555   23.3694 C   0  0  0  0  0  0  0  0  0  0  0  0
   12.1076   12.4032   22.1816 C   0  0  0  0  0  0  0  0  0  0  0  0
   11.6544   10.9575   22.2088 C   0  0  0  0  0  0  0  0  0  0  0  0
   12.0520   10.0270   21.5287 O   0  0  0  0  0  0  0  0  0  0  0  0
  1  2  1  0
  2  3  1  0
  2  4  1  0
  4  5  1  0
  5  6  2  0
  6  7  1  0
  7  8  2  0
  8  9  1  0
  9 10  2  0
  9 11  1  0
 11 12  1  0
 12 13  1  0
 13 14  2  0
 10  5  1  0
 13  8  1  0
M  END
>  <Crystalforms alias>  (165) 
nan

>  <original ID>  (165) 
NLUPNAKVXJFJDD-UHFFFAOYSA-N

>  <alias>  (165) 
None

>  <distance_score>  (165) 
1.20386

>  <CanonSites upload name>  (165) 
nan

>  <CanonSites alias>  (165) 
nan

>  <ConformerSites alias>  (165) 
nan

>  <observation_longname>  (165) 
nan

>  <CrystalformSites alias>  (165) 
nan

>  <tags>  (165) 
[]

>  <ref_mols>  (165) 
A1775a

>  <ref_pdb>  (165) 
A1775a

>  <Quatassemblies upload name>  (165) 
nan

>  <inchikey>  (165) 
NLUPNAKVXJFJDD-UHFFFAOYSA-N

>  <Experiment code>  (165) 
nan

>  <Quatassemblies alias>  (165) 
nan

>  <Crystalforms upload name>  (165) 
nan

>  <Centroid res>  (165) 
nan

>  <ConformerSites upload name>  (165) 
nan

>  <energy_score>  (165) 
-11.274783

>  <original SMILES>  (165) 
CC(C)Oc1ccc2c(c1)CCC2=O

>  <exports>  (165) 
nan

>  <CrystalformSites upload name>  (165) 
nan

>  <name>  (165) 
NLUPNAKVXJFJDD-UHFFFAOYSA-N

>  <HIPPO ID>  (165) 
118530

$$$$
DIBGMIDKOYXIGL-UHFFFAOYSA-N
     RDKit          3D

 14 15  0  0  0  0  0  0  0  0999 V2000
    5.2832   10.7519   27.2657 C   0  0  0  0  0  0  0  0  0  0  0  0
    5.5049   12.0315   26.4794 C   0  0  0  0  0  0  0  0  0  0  0  0
    6.9385   12.2132   25.9900 C   0  0  0  0  0  0  0  0  0  0  0  0
    7.4538   10.9781   25.5145 O   0  0  0  0  0  0  0  0  0  0  0  0
    8.5904   11.0111   24.7581 C   0  0  0  0  0  0  0  0  0  0  0  0
    8.9195    9.7676   24.1882 C   0  0  0  0  0  0  0  0  0  0  0  0
    9.9943    9.6227   23.3246 C   0  0  0  0  0  0  0  0  0  0  0  0
   10.7126   10.7606   23.0484 C   0  0  0  0  0  0  0  0  0  0  0  0
   10.4465   11.9963   23.6233 C   0  0  0  0  0  0  0  0  0  0  0  0
    9.3849   12.1328   24.5053 C   0  0  0  0  0  0  0  0  0  0  0  0
   11.4035   13.0466   23.1543 C   0  0  0  0  0  0  0  0  0  0  0  0
   12.2145   12.3665   22.0566 C   0  0  0  0  0  0  0  0  0  0  0  0
   11.7808   10.9164   22.0858 C   0  0  0  0  0  0  0  0  0  0  0  0
   12.1951    9.9911   21.4096 O   0  0  0  0  0  0  0  0  0  0  0  0
  1  2  1  0
  2  3  1  0
  3  4  1  0
  4  5  1  0
  5  6  2  0
  6  7  1  0
  7  8  2  0
  8  9  1  0
  9 10  2  0
  9 11  1  0
 11 12  1  0
 12 13  1  0
 13 14  2  0
 10  5  1  0
 13  8  1  0
M  END
>  <Crystalforms alias>  (166) 
nan

>  <original ID>  (166) 
DIBGMIDKOYXIGL-UHFFFAOYSA-N

>  <alias>  (166) 
None

>  <distance_score>  (166) 
1.129212

>  <CanonSites upload name>  (166) 
nan

>  <CanonSites alias>  (166) 
nan

>  <ConformerSites alias>  (166) 
nan

>  <observation_longname>  (166) 
nan

>  <CrystalformSites alias>  (166) 
nan

>  <tags>  (166) 
[]

>  <ref_mols>  (166) 
A1775a

>  <ref_pdb>  (166) 
A1775a

>  <Quatassemblies upload name>  (166) 
nan

>  <inchikey>  (166) 
DIBGMIDKOYXIGL-UHFFFAOYSA-N

>  <Experiment code>  (166) 
nan

>  <Quatassemblies alias>  (166) 
nan

>  <Crystalforms upload name>  (166) 
nan

>  <Centroid res>  (166) 
nan

>  <ConformerSites upload name>  (166) 
nan

>  <energy_score>  (166) 
-24.688562

>  <original SMILES>  (166) 
CCCOc1ccc2c(c1)CCC2=O

>  <exports>  (166) 
nan

>  <CrystalformSites upload name>  (166) 
nan

>  <name>  (166) 
DIBGMIDKOYXIGL-UHFFFAOYSA-N

>  <HIPPO ID>  (166) 
118531

$$$$
WRMLGNJEOPKSSD-UHFFFAOYSA-N
     RDKit          3D

 14 14  0  0  0  0  0  0  0  0999 V2000
    5.6357   11.0075   27.9121 C   0  0  0  0  0  0  0  0  0  0  0  0
    5.5435   12.0179   26.7801 C   0  0  0  0  0  0  0  0  0  0  0  0
    6.8817   12.2703   26.0947 C   0  0  0  0  0  0  0  0  0  0  0  0
    7.4196   11.0384   25.6343 O   0  0  0  0  0  0  0  0  0  0  0  0
    8.5327   11.0967   24.8478 C   0  0  0  0  0  0  0  0  0  0  0  0
    8.8836    9.8785   24.2740 C   0  0  0  0  0  0  0  0  0  0  0  0
    9.9638    9.7802   23.4092 C   0  0  0  0  0  0  0  0  0  0  0  0
   10.7042   10.9192   23.0889 C   0  0  0  0  0  0  0  0  0  0  0  0
   11.7589   10.7736   22.0565 C   0  0  0  0  0  0  0  0  0  0  0  0
   11.9035    9.6649   21.5406 O   0  0  0  0  0  0  0  0  0  0  0  0
   12.5770   11.9902   21.6321 C   0  0  0  0  0  0  0  0  0  0  0  0
   13.6476   11.6194   20.5971 C   0  0  0  0  0  0  0  0  0  0  0  0
   10.3868   12.1394   23.6908 C   0  0  0  0  0  0  0  0  0  0  0  0
    9.3063   12.2236   24.5783 C   0  0  0  0  0  0  0  0  0  0  0  0
  1  2  1  0
  2  3  1  0
  3  4  1  0
  4  5  1  0
  5  6  2  0
  6  7  1  0
  7  8  2  0
  8  9  1  0
  9 10  2  0
  9 11  1  0
 11 12  1  0
  8 13  1  0
 13 14  2  0
 14  5  1  0
M  END
>  <Crystalforms alias>  (167) 
nan

>  <original ID>  (167) 
WRMLGNJEOPKSSD-UHFFFAOYSA-N

>  <alias>  (167) 
None

>  <distance_score>  (167) 
0.357268

>  <CanonSites upload name>  (167) 
nan

>  <CanonSites alias>  (167) 
nan

>  <ConformerSites alias>  (167) 
nan

>  <observation_longname>  (167) 
nan

>  <CrystalformSites alias>  (167) 
nan

>  <tags>  (167) 
[]

>  <ref_mols>  (167) 
A1775a

>  <ref_pdb>  (167) 
A1775a

>  <Quatassemblies upload name>  (167) 
nan

>  <inchikey>  (167) 
WRMLGNJEOPKSSD-UHFFFAOYSA-N

>  <Experiment code>  (167) 
nan

>  <Quatassemblies alias>  (167) 
nan

>  <Crystalforms upload name>  (167) 
nan

>  <Centroid res>  (167) 
nan

>  <ConformerSites upload name>  (167) 
nan

>  <energy_score>  (167) 
-5.650185

>  <original SMILES>  (167) 
CCCOc1ccc(C(=O)CC)cc1

>  <exports>  (167) 
nan

>  <CrystalformSites upload name>  (167) 
nan

>  <name>  (167) 
WRMLGNJEOPKSSD-UHFFFAOYSA-N

>  <HIPPO ID>  (167) 
118532

$$$$
ZVZPOGVDSDWYQI-MRVPVSSYSA-N
     RDKit          3D

 15 16  0  0  0  0  0  0  0  0999 V2000
    5.5768   12.2589   27.8614 C   0  0  0  0  0  0  0  0  0  0  0  0
    5.4618   12.1526   26.3498 C   0  0  1  0  0  0  0  0  0  0  0  0
    4.5631   13.1778   25.9415 O   0  0  0  0  0  0  0  0  0  0  0  0
    6.8173   12.3242   25.6590 C   0  0  0  0  0  0  0  0  0  0  0  0
    7.5549   11.1042   25.6936 O   0  0  0  0  0  0  0  0  0  0  0  0
    8.6301   11.0797   24.8422 C   0  0  0  0  0  0  0  0  0  0  0  0
    8.9013    9.8276   24.2671 C   0  0  0  0  0  0  0  0  0  0  0  0
    9.9448    9.6565   23.3672 C   0  0  0  0  0  0  0  0  0  0  0  0
   10.6915   10.7727   23.0678 C   0  0  0  0  0  0  0  0  0  0  0  0
   10.4753   12.0167   23.6445 C   0  0  0  0  0  0  0  0  0  0  0  0
    9.4438   12.1822   24.5548 C   0  0  0  0  0  0  0  0  0  0  0  0
   11.4621   13.0353   23.1666 C   0  0  0  0  0  0  0  0  0  0  0  0
   12.2204   12.3363   22.0442 C   0  0  0  0  0  0  0  0  0  0  0  0
   11.7556   10.8949   22.0940 C   0  0  0  0  0  0  0  0  0  0  0  0
   12.1457    9.9532   21.4263 O   0  0  0  0  0  0  0  0  0  0  0  0
  2  1  1  1
  2  3  1  0
  2  4  1  0
  4  5  1  0
  5  6  1  0
  6  7  2  0
  7  8  1  0
  8  9  2  0
  9 10  1  0
 10 11  2  0
 10 12  1  0
 12 13  1  0
 13 14  1  0
 14 15  2  0
 11  6  1  0
 14  9  1  0
M  END
>  <Crystalforms alias>  (168) 
nan

>  <original ID>  (168) 
ZVZPOGVDSDWYQI-MRVPVSSYSA-N

>  <alias>  (168) 
None

>  <distance_score>  (168) 
1.125857

>  <CanonSites upload name>  (168) 
nan

>  <CanonSites alias>  (168) 
nan

>  <ConformerSites alias>  (168) 
nan

>  <observation_longname>  (168) 
nan

>  <CrystalformSites alias>  (168) 
nan

>  <tags>  (168) 
[]

>  <ref_mols>  (168) 
A1775a

>  <ref_pdb>  (168) 
A1775a

>  <Quatassemblies upload name>  (168) 
nan

>  <inchikey>  (168) 
ZVZPOGVDSDWYQI-MRVPVSSYSA-N

>  <Experiment code>  (168) 
nan

>  <Quatassemblies alias>  (168) 
nan

>  <Crystalforms upload name>  (168) 
nan

>  <Centroid res>  (168) 
nan

>  <ConformerSites upload name>  (168) 
nan

>  <energy_score>  (168) 
-26.794628

>  <original SMILES>  (168) 
C[C@@H](O)COc1ccc2c(c1)CCC2=O

>  <exports>  (168) 
nan

>  <CrystalformSites upload name>  (168) 
nan

>  <name>  (168) 
ZVZPOGVDSDWYQI-MRVPVSSYSA-N

>  <HIPPO ID>  (168) 
119162

$$$$
ZVZPOGVDSDWYQI-QMMMGPOBSA-N
     RDKit          3D

 15 16  0  0  0  0  0  0  0  0999 V2000
    4.7591   13.2643   26.8808 C   0  0  0  0  0  0  0  0  0  0  0  0
    5.3999   12.0752   26.1910 C   0  0  2  0  0  0  0  0  0  0  0  0
    5.0983   10.8981   26.9298 O   0  0  0  0  0  0  0  0  0  0  0  0
    6.9098   12.2364   26.0133 C   0  0  0  0  0  0  0  0  0  0  0  0
    7.4451   10.9919   25.5613 O   0  0  0  0  0  0  0  0  0  0  0  0
    8.5825   11.0198   24.8043 C   0  0  0  0  0  0  0  0  0  0  0  0
    8.8895    9.7814   24.2106 C   0  0  0  0  0  0  0  0  0  0  0  0
    9.9575    9.6334   23.3383 C   0  0  0  0  0  0  0  0  0  0  0  0
   10.6944   10.7628   23.0785 C   0  0  0  0  0  0  0  0  0  0  0  0
   10.4562   11.9902   23.6828 C   0  0  0  0  0  0  0  0  0  0  0  0
    9.4023   12.1286   24.5748 C   0  0  0  0  0  0  0  0  0  0  0  0
   11.4435   13.0253   23.2415 C   0  0  0  0  0  0  0  0  0  0  0  0
   12.1964   12.3687   22.0890 C   0  0  0  0  0  0  0  0  0  0  0  0
   11.7585   10.9191   22.1108 C   0  0  0  0  0  0  0  0  0  0  0  0
   12.1645    9.9962   21.4264 O   0  0  0  0  0  0  0  0  0  0  0  0
  2  1  1  1
  2  3  1  0
  2  4  1  0
  4  5  1  0
  5  6  1  0
  6  7  2  0
  7  8  1  0
  8  9  2  0
  9 10  1  0
 10 11  2  0
 10 12  1  0
 12 13  1  0
 13 14  1  0
 14 15  2  0
 11  6  1  0
 14  9  1  0
M  END
>  <Crystalforms alias>  (169) 
nan

>  <original ID>  (169) 
ZVZPOGVDSDWYQI-QMMMGPOBSA-N

>  <alias>  (169) 
None

>  <distance_score>  (169) 
1.141324

>  <CanonSites upload name>  (169) 
nan

>  <CanonSites alias>  (169) 
nan

>  <ConformerSites alias>  (169) 
nan

>  <observation_longname>  (169) 
nan

>  <CrystalformSites alias>  (169) 
nan

>  <tags>  (169) 
[]

>  <ref_mols>  (169) 
A1775a

>  <ref_pdb>  (169) 
A1775a

>  <Quatassemblies upload name>  (169) 
nan

>  <inchikey>  (169) 
ZVZPOGVDSDWYQI-QMMMGPOBSA-N

>  <Experiment code>  (169) 
nan

>  <Quatassemblies alias>  (169) 
nan

>  <Crystalforms upload name>  (169) 
nan

>  <Centroid res>  (169) 
nan

>  <ConformerSites upload name>  (169) 
nan

>  <energy_score>  (169) 
-21.950668

>  <original SMILES>  (169) 
C[C@H](O)COc1ccc2c(c1)CCC2=O

>  <exports>  (169) 
nan

>  <CrystalformSites upload name>  (169) 
nan

>  <name>  (169) 
ZVZPOGVDSDWYQI-QMMMGPOBSA-N

>  <HIPPO ID>  (169) 
119163

$$$$
XZOWVNOCWULZDC-SECBINFHSA-N
     RDKit          3D

 15 15  0  0  0  0  0  0  0  0999 V2000
   13.6366   11.6198   20.6046 C   0  0  0  0  0  0  0  0  0  0  0  0
   12.5654   11.9880   21.6405 C   0  0  0  0  0  0  0  0  0  0  0  0
   11.7496   10.7692   22.0644 C   0  0  0  0  0  0  0  0  0  0  0  0
   11.9028    9.6589   21.5551 O   0  0  0  0  0  0  0  0  0  0  0  0
   10.6903   10.9127   23.0927 C   0  0  0  0  0  0  0  0  0  0  0  0
   10.3661   12.1325   23.6905 C   0  0  0  0  0  0  0  0  0  0  0  0
    9.2812   12.2148   24.5732 C   0  0  0  0  0  0  0  0  0  0  0  0
    8.5088   11.0865   24.8440 C   0  0  0  0  0  0  0  0  0  0  0  0
    7.3850   11.0287   25.6184 O   0  0  0  0  0  0  0  0  0  0  0  0
    6.9490   12.2417   26.2135 C   0  0  0  0  0  0  0  0  0  0  0  0
    5.6492   12.0360   26.9975 C   0  0  1  0  0  0  0  0  0  0  0  0
    5.7126   10.8746   27.9755 C   0  0  0  0  0  0  0  0  0  0  0  0
    5.3869   13.2276   27.7393 O   0  0  0  0  0  0  0  0  0  0  0  0
    8.8661    9.8693   24.2723 C   0  0  0  0  0  0  0  0  0  0  0  0
    9.9516    9.7726   23.4129 C   0  0  0  0  0  0  0  0  0  0  0  0
  1  2  1  0
  2  3  1  0
  3  4  2  0
  3  5  1  0
  5  6  2  0
  6  7  1  0
  7  8  2  0
  8  9  1  0
  9 10  1  0
 10 11  1  0
 11 12  1  1
 11 13  1  0
  8 14  1  0
 14 15  2  0
 15  5  1  0
M  END
>  <Crystalforms alias>  (170) 
nan

>  <original ID>  (170) 
XZOWVNOCWULZDC-SECBINFHSA-N

>  <alias>  (170) 
None

>  <distance_score>  (170) 
0.373018

>  <CanonSites upload name>  (170) 
nan

>  <CanonSites alias>  (170) 
nan

>  <ConformerSites alias>  (170) 
nan

>  <observation_longname>  (170) 
nan

>  <CrystalformSites alias>  (170) 
nan

>  <tags>  (170) 
[]

>  <ref_mols>  (170) 
A1775a

>  <ref_pdb>  (170) 
A1775a

>  <Quatassemblies upload name>  (170) 
nan

>  <inchikey>  (170) 
XZOWVNOCWULZDC-SECBINFHSA-N

>  <Experiment code>  (170) 
nan

>  <Quatassemblies alias>  (170) 
nan

>  <Crystalforms upload name>  (170) 
nan

>  <Centroid res>  (170) 
nan

>  <ConformerSites upload name>  (170) 
nan

>  <energy_score>  (170) 
-22.250349

>  <original SMILES>  (170) 
CCC(=O)c1ccc(OC[C@@H](C)O)cc1

>  <exports>  (170) 
nan

>  <CrystalformSites upload name>  (170) 
nan

>  <name>  (170) 
XZOWVNOCWULZDC-SECBINFHSA-N

>  <HIPPO ID>  (170) 
119168

$$$$
XZOWVNOCWULZDC-SECBINFHSA-N
     RDKit          3D

 15 15  0  0  0  0  0  0  0  0999 V2000
   13.6503   11.6092   20.5888 C   0  0  0  0  0  0  0  0  0  0  0  0
   12.5812   11.9928   21.6187 C   0  0  0  0  0  0  0  0  0  0  0  0
   11.7456   10.7901   22.0503 C   0  0  0  0  0  0  0  0  0  0  0  0
   11.8817    9.6718   21.5536 O   0  0  0  0  0  0  0  0  0  0  0  0
   10.6920   10.9650   23.0808 C   0  0  0  0  0  0  0  0  0  0  0  0
    9.9259    9.8438   23.4135 C   0  0  0  0  0  0  0  0  0  0  0  0
    8.8972    9.9560   24.3380 C   0  0  0  0  0  0  0  0  0  0  0  0
    8.6327   11.1753   24.9485 C   0  0  0  0  0  0  0  0  0  0  0  0
    7.6804   11.1719   25.9245 O   0  0  0  0  0  0  0  0  0  0  0  0
    6.6281   12.1111   25.7053 C   0  0  0  0  0  0  0  0  0  0  0  0
    5.5482   11.9577   26.7846 C   0  0  1  0  0  0  0  0  0  0  0  0
    5.2380   10.5063   27.1128 C   0  0  0  0  0  0  0  0  0  0  0  0
    5.9817   12.6044   27.9884 O   0  0  0  0  0  0  0  0  0  0  0  0
    9.4054   12.2923   24.6451 C   0  0  0  0  0  0  0  0  0  0  0  0
   10.4288   12.1922   23.6984 C   0  0  0  0  0  0  0  0  0  0  0  0
  1  2  1  0
  2  3  1  0
  3  4  2  0
  3  5  1  0
  5  6  2  0
  6  7  1  0
  7  8  2  0
  8  9  1  0
  9 10  1  0
 10 11  1  0
 11 12  1  1
 11 13  1  0
  8 14  1  0
 14 15  2  0
 15  5  1  0
M  END
>  <Crystalforms alias>  (171) 
nan

>  <original ID>  (171) 
XZOWVNOCWULZDC-SECBINFHSA-N

>  <alias>  (171) 
None

>  <distance_score>  (171) 
0.423269

>  <CanonSites upload name>  (171) 
nan

>  <CanonSites alias>  (171) 
nan

>  <ConformerSites alias>  (171) 
nan

>  <observation_longname>  (171) 
nan

>  <CrystalformSites alias>  (171) 
nan

>  <tags>  (171) 
[]

>  <ref_mols>  (171) 
A1775a

>  <ref_pdb>  (171) 
A1775a

>  <Quatassemblies upload name>  (171) 
nan

>  <inchikey>  (171) 
XZOWVNOCWULZDC-SECBINFHSA-N

>  <Experiment code>  (171) 
nan

>  <Quatassemblies alias>  (171) 
nan

>  <Crystalforms upload name>  (171) 
nan

>  <Centroid res>  (171) 
nan

>  <ConformerSites upload name>  (171) 
nan

>  <energy_score>  (171) 
-11.81656

>  <original SMILES>  (171) 
CCC(=O)c1ccc(OC[C@@H](C)O)cc1

>  <exports>  (171) 
nan

>  <CrystalformSites upload name>  (171) 
nan

>  <name>  (171) 
XZOWVNOCWULZDC-SECBINFHSA-N

>  <HIPPO ID>  (171) 
119169

$$$$
IIRLNFRKCYDHBG-UHFFFAOYSA-N
     RDKit          3D

 16 17  0  0  0  0  0  0  0  0999 V2000
    5.8230   11.0469   28.0376 C   0  0  0  0  0  0  0  0  0  0  0  0
    5.6209   11.9845   26.8541 C   0  0  0  0  0  0  0  0  0  0  0  0
    4.9379   13.2699   27.2995 C   0  0  0  0  0  0  0  0  0  0  0  0
    4.7585   11.3683   26.0009 F   0  0  0  0  0  0  0  0  0  0  0  0
    6.9172   12.2634   26.0781 C   0  0  0  0  0  0  0  0  0  0  0  0
    7.5338   11.0280   25.7174 O   0  0  0  0  0  0  0  0  0  0  0  0
    8.5922   11.0700   24.8552 C   0  0  0  0  0  0  0  0  0  0  0  0
    8.8957    9.8252   24.2739 C   0  0  0  0  0  0  0  0  0  0  0  0
    9.9444    9.6716   23.3787 C   0  0  0  0  0  0  0  0  0  0  0  0
   10.6623   10.8034   23.0773 C   0  0  0  0  0  0  0  0  0  0  0  0
   10.4022   12.0472   23.6385 C   0  0  0  0  0  0  0  0  0  0  0  0
    9.3632   12.1938   24.5484 C   0  0  0  0  0  0  0  0  0  0  0  0
   11.3440   13.0943   23.1314 C   0  0  0  0  0  0  0  0  0  0  0  0
   12.1831   12.3850   22.0735 C   0  0  0  0  0  0  0  0  0  0  0  0
   11.7357   10.9389   22.1157 C   0  0  0  0  0  0  0  0  0  0  0  0
   12.1485   10.0018   21.4545 O   0  0  0  0  0  0  0  0  0  0  0  0
  1  2  1  0
  2  3  1  0
  2  4  1  0
  2  5  1  0
  5  6  1  0
  6  7  1  0
  7  8  2  0
  8  9  1  0
  9 10  2  0
 10 11  1  0
 11 12  2  0
 11 13  1  0
 13 14  1  0
 14 15  1  0
 15 16  2  0
 12  7  1  0
 15 10  1  0
M  END
>  <Crystalforms alias>  (172) 
nan

>  <original ID>  (172) 
IIRLNFRKCYDHBG-UHFFFAOYSA-N

>  <alias>  (172) 
None

>  <distance_score>  (172) 
1.151448

>  <CanonSites upload name>  (172) 
nan

>  <CanonSites alias>  (172) 
nan

>  <ConformerSites alias>  (172) 
nan

>  <observation_longname>  (172) 
nan

>  <CrystalformSites alias>  (172) 
nan

>  <tags>  (172) 
[]

>  <ref_mols>  (172) 
A1775a

>  <ref_pdb>  (172) 
A1775a

>  <Quatassemblies upload name>  (172) 
nan

>  <inchikey>  (172) 
IIRLNFRKCYDHBG-UHFFFAOYSA-N

>  <Experiment code>  (172) 
nan

>  <Quatassemblies alias>  (172) 
nan

>  <Crystalforms upload name>  (172) 
nan

>  <Centroid res>  (172) 
nan

>  <ConformerSites upload name>  (172) 
nan

>  <energy_score>  (172) 
-37.527837

>  <original SMILES>  (172) 
CC(C)(F)COc1ccc2c(c1)CCC2=O

>  <exports>  (172) 
nan

>  <CrystalformSites upload name>  (172) 
nan

>  <name>  (172) 
IIRLNFRKCYDHBG-UHFFFAOYSA-N

>  <HIPPO ID>  (172) 
119375

$$$$
PYVYDHKQIQRRIM-UHFFFAOYSA-N
     RDKit          3D

 16 16  0  0  0  0  0  0  0  0999 V2000
   13.7131   11.6118   20.5431 C   0  0  0  0  0  0  0  0  0  0  0  0
   12.6365   11.9838   21.5674 C   0  0  0  0  0  0  0  0  0  0  0  0
   11.8110   10.7732   21.9872 C   0  0  0  0  0  0  0  0  0  0  0  0
   11.9465    9.6641   21.4713 O   0  0  0  0  0  0  0  0  0  0  0  0
   10.7629   10.9254   23.0216 C   0  0  0  0  0  0  0  0  0  0  0  0
   10.4856   12.1439   23.6482 C   0  0  0  0  0  0  0  0  0  0  0  0
    9.4640   12.2208   24.5964 C   0  0  0  0  0  0  0  0  0  0  0  0
    8.7132   11.0867   24.8932 C   0  0  0  0  0  0  0  0  0  0  0  0
    7.7511   11.0354   25.8544 O   0  0  0  0  0  0  0  0  0  0  0  0
    6.8089   12.0995   25.8103 C   0  0  0  0  0  0  0  0  0  0  0  0
    5.6735   11.8288   26.8049 C   0  0  0  0  0  0  0  0  0  0  0  0
    5.3095   10.3599   26.9452 C   0  0  0  0  0  0  0  0  0  0  0  0
    4.4794   12.6972   26.4511 C   0  0  0  0  0  0  0  0  0  0  0  0
    6.1028   12.2217   28.0451 F   0  0  0  0  0  0  0  0  0  0  0  0
    8.9905    9.8776   24.2682 C   0  0  0  0  0  0  0  0  0  0  0  0
   10.0158    9.7891   23.3424 C   0  0  0  0  0  0  0  0  0  0  0  0
  1  2  1  0
  2  3  1  0
  3  4  2  0
  3  5  1  0
  5  6  2  0
  6  7  1  0
  7  8  2  0
  8  9  1  0
  9 10  1  0
 10 11  1  0
 11 12  1  0
 11 13  1  0
 11 14  1  0
  8 15  1  0
 15 16  2  0
 16  5  1  0
M  END
>  <Crystalforms alias>  (173) 
nan

>  <original ID>  (173) 
PYVYDHKQIQRRIM-UHFFFAOYSA-N

>  <alias>  (173) 
None

>  <distance_score>  (173) 
0.378904

>  <CanonSites upload name>  (173) 
nan

>  <CanonSites alias>  (173) 
nan

>  <ConformerSites alias>  (173) 
nan

>  <observation_longname>  (173) 
nan

>  <CrystalformSites alias>  (173) 
nan

>  <tags>  (173) 
[]

>  <ref_mols>  (173) 
A1775a

>  <ref_pdb>  (173) 
A1775a

>  <Quatassemblies upload name>  (173) 
nan

>  <inchikey>  (173) 
PYVYDHKQIQRRIM-UHFFFAOYSA-N

>  <Experiment code>  (173) 
nan

>  <Quatassemblies alias>  (173) 
nan

>  <Crystalforms upload name>  (173) 
nan

>  <Centroid res>  (173) 
nan

>  <ConformerSites upload name>  (173) 
nan

>  <energy_score>  (173) 
-13.033231

>  <original SMILES>  (173) 
CCC(=O)c1ccc(OCC(C)(C)F)cc1

>  <exports>  (173) 
nan

>  <CrystalformSites upload name>  (173) 
nan

>  <name>  (173) 
PYVYDHKQIQRRIM-UHFFFAOYSA-N

>  <HIPPO ID>  (173) 
119376

$$$$
FRFZUQHMOYXOKZ-SNVBAGLBSA-N
     RDKit          3D

 16 16  0  0  0  0  0  0  0  0999 V2000
   11.7226   13.3701   21.4434 C   0  0  0  0  0  0  0  0  0  0  0  0
   12.4935   12.1046   21.8144 C   0  0  0  0  0  0  0  0  0  0  0  0
   13.5582   11.6958   20.7800 C   0  0  0  0  0  0  0  0  0  0  0  0
   11.6576   10.8674   22.1764 C   0  0  0  0  0  0  0  0  0  0  0  0
   11.8020    9.7747   21.6227 O   0  0  0  0  0  0  0  0  0  0  0  0
   10.6439   10.9416   23.2497 C   0  0  0  0  0  0  0  0  0  0  0  0
    9.8448    9.8151   23.4394 C   0  0  0  0  0  0  0  0  0  0  0  0
    8.7838    9.8745   24.3226 C   0  0  0  0  0  0  0  0  0  0  0  0
    8.4988   11.0486   25.0094 C   0  0  0  0  0  0  0  0  0  0  0  0
    7.3760   10.9925   25.7731 O   0  0  0  0  0  0  0  0  0  0  0  0
    6.7815   12.2389   26.1059 C   0  0  0  0  0  0  0  0  0  0  0  0
    5.3112   12.0089   26.4255 C   0  0  1  0  0  0  0  0  0  0  0  0
    5.1110   10.9980   27.5439 C   0  0  0  0  0  0  0  0  0  0  0  0
    4.6817   13.2327   26.7727 O   0  0  0  0  0  0  0  0  0  0  0  0
    9.3463   12.1434   24.8946 C   0  0  0  0  0  0  0  0  0  0  0  0
   10.4314   12.0841   24.0252 C   0  0  0  0  0  0  0  0  0  0  0  0
  1  2  1  0
  2  3  1  0
  2  4  1  0
  4  5  2  0
  4  6  1  0
  6  7  2  0
  7  8  1  0
  8  9  2  0
  9 10  1  0
 10 11  1  0
 11 12  1  0
 12 13  1  1
 12 14  1  0
  9 15  1  0
 15 16  2  0
 16  6  1  0
M  END
>  <Crystalforms alias>  (174) 
nan

>  <original ID>  (174) 
FRFZUQHMOYXOKZ-SNVBAGLBSA-N

>  <alias>  (174) 
None

>  <distance_score>  (174) 
0.918862

>  <CanonSites upload name>  (174) 
nan

>  <CanonSites alias>  (174) 
nan

>  <ConformerSites alias>  (174) 
nan

>  <observation_longname>  (174) 
nan

>  <CrystalformSites alias>  (174) 
nan

>  <tags>  (174) 
[]

>  <ref_mols>  (174) 
A1775a

>  <ref_pdb>  (174) 
A1775a

>  <Quatassemblies upload name>  (174) 
nan

>  <inchikey>  (174) 
FRFZUQHMOYXOKZ-SNVBAGLBSA-N

>  <Experiment code>  (174) 
nan

>  <Quatassemblies alias>  (174) 
nan

>  <Crystalforms upload name>  (174) 
nan

>  <Centroid res>  (174) 
nan

>  <ConformerSites upload name>  (174) 
nan

>  <energy_score>  (174) 
-13.64307

>  <original SMILES>  (174) 
CC(C)C(=O)c1ccc(OC[C@@H](C)O)cc1

>  <exports>  (174) 
nan

>  <CrystalformSites upload name>  (174) 
nan

>  <name>  (174) 
FRFZUQHMOYXOKZ-SNVBAGLBSA-N

>  <HIPPO ID>  (174) 
119430

$$$$
FRFZUQHMOYXOKZ-JTQLQIEISA-N
     RDKit          3D

 16 16  0  0  0  0  0  0  0  0999 V2000
   12.7830   12.9539   23.0175 C   0  0  0  0  0  0  0  0  0  0  0  0
   12.3813   12.0684   21.8238 C   0  0  0  0  0  0  0  0  0  0  0  0
   13.4977   11.6911   20.8170 C   0  0  0  0  0  0  0  0  0  0  0  0
   11.5796   10.8088   22.2108 C   0  0  0  0  0  0  0  0  0  0  0  0
   11.8130    9.6859   21.7622 O   0  0  0  0  0  0  0  0  0  0  0  0
   10.4171   10.9410   23.1152 C   0  0  0  0  0  0  0  0  0  0  0  0
    9.8140    9.7900   23.6149 C   0  0  0  0  0  0  0  0  0  0  0  0
    8.6973    9.9070   24.4368 C   0  0  0  0  0  0  0  0  0  0  0  0
    8.2057   11.1509   24.8188 C   0  0  0  0  0  0  0  0  0  0  0  0
    7.1131   11.1414   25.6446 O   0  0  0  0  0  0  0  0  0  0  0  0
    6.7539   12.4191   26.1745 C   0  0  0  0  0  0  0  0  0  0  0  0
    5.5398   12.3793   27.1076 C   0  0  2  0  0  0  0  0  0  0  0  0
    5.5512   11.2011   28.0624 C   0  0  0  0  0  0  0  0  0  0  0  0
    4.3252   12.3592   26.3637 O   0  0  0  0  0  0  0  0  0  0  0  0
    8.8074   12.2880   24.3006 C   0  0  0  0  0  0  0  0  0  0  0  0
    9.8766   12.1857   23.4256 C   0  0  0  0  0  0  0  0  0  0  0  0
  1  2  1  0
  2  3  1  0
  2  4  1  0
  4  5  2  0
  4  6  1  0
  6  7  2  0
  7  8  1  0
  8  9  2  0
  9 10  1  0
 10 11  1  0
 11 12  1  0
 12 13  1  6
 12 14  1  0
  9 15  1  0
 15 16  2  0
 16  6  1  0
M  END
>  <Crystalforms alias>  (175) 
nan

>  <original ID>  (175) 
FRFZUQHMOYXOKZ-JTQLQIEISA-N

>  <alias>  (175) 
None

>  <distance_score>  (175) 
0.591514

>  <CanonSites upload name>  (175) 
nan

>  <CanonSites alias>  (175) 
nan

>  <ConformerSites alias>  (175) 
nan

>  <observation_longname>  (175) 
nan

>  <CrystalformSites alias>  (175) 
nan

>  <tags>  (175) 
[]

>  <ref_mols>  (175) 
A1775a

>  <ref_pdb>  (175) 
A1775a

>  <Quatassemblies upload name>  (175) 
nan

>  <inchikey>  (175) 
FRFZUQHMOYXOKZ-JTQLQIEISA-N

>  <Experiment code>  (175) 
nan

>  <Quatassemblies alias>  (175) 
nan

>  <Crystalforms upload name>  (175) 
nan

>  <Centroid res>  (175) 
nan

>  <ConformerSites upload name>  (175) 
nan

>  <energy_score>  (175) 
-5.095768

>  <original SMILES>  (175) 
CC(C)C(=O)c1ccc(OC[C@H](C)O)cc1

>  <exports>  (175) 
nan

>  <CrystalformSites upload name>  (175) 
nan

>  <name>  (175) 
FRFZUQHMOYXOKZ-JTQLQIEISA-N

>  <HIPPO ID>  (175) 
119431

$$$$
OUBVVYKQTLBROG-SNVBAGLBSA-N
     RDKit          3D

 16 17  0  0  0  0  0  0  0  0999 V2000
    3.9329   10.5207   27.8621 C   0  0  0  0  0  0  0  0  0  0  0  0
    5.0002   10.8957   26.8410 C   0  0  0  0  0  0  0  0  0  0  0  0
    5.9799   11.9735   27.3029 C   0  0  1  0  0  0  0  0  0  0  0  0
    6.5854   11.5639   28.5752 N   0  0  0  0  0  0  0  0  0  0  0  0
    7.0647   12.2507   26.2306 C   0  0  0  0  0  0  0  0  0  0  0  0
    7.5876   11.0233   25.7294 O   0  0  0  0  0  0  0  0  0  0  0  0
    8.6285   11.0708   24.8486 C   0  0  0  0  0  0  0  0  0  0  0  0
    8.9190    9.8259   24.2596 C   0  0  0  0  0  0  0  0  0  0  0  0
    9.9599    9.6688   23.3566 C   0  0  0  0  0  0  0  0  0  0  0  0
   10.6811   10.7978   23.0529 C   0  0  0  0  0  0  0  0  0  0  0  0
   10.4276   12.0430   23.6127 C   0  0  0  0  0  0  0  0  0  0  0  0
    9.3954   12.1935   24.5286 C   0  0  0  0  0  0  0  0  0  0  0  0
   11.3722   13.0864   23.1039 C   0  0  0  0  0  0  0  0  0  0  0  0
   12.2071   12.3721   22.0465 C   0  0  0  0  0  0  0  0  0  0  0  0
   11.7546   10.9280   22.0919 C   0  0  0  0  0  0  0  0  0  0  0  0
   12.1632    9.9882   21.4320 O   0  0  0  0  0  0  0  0  0  0  0  0
  1  2  1  0
  2  3  1  0
  3  4  1  1
  3  5  1  0
  5  6  1  0
  6  7  1  0
  7  8  2  0
  8  9  1  0
  9 10  2  0
 10 11  1  0
 11 12  2  0
 11 13  1  0
 13 14  1  0
 14 15  1  0
 15 16  2  0
 12  7  1  0
 15 10  1  0
M  END
>  <Crystalforms alias>  (176) 
nan

>  <original ID>  (176) 
OUBVVYKQTLBROG-SNVBAGLBSA-N

>  <alias>  (176) 
None

>  <distance_score>  (176) 
1.157149

>  <CanonSites upload name>  (176) 
nan

>  <CanonSites alias>  (176) 
nan

>  <ConformerSites alias>  (176) 
nan

>  <observation_longname>  (176) 
nan

>  <CrystalformSites alias>  (176) 
nan

>  <tags>  (176) 
[]

>  <ref_mols>  (176) 
A1775a

>  <ref_pdb>  (176) 
A1775a

>  <Quatassemblies upload name>  (176) 
nan

>  <inchikey>  (176) 
OUBVVYKQTLBROG-SNVBAGLBSA-N

>  <Experiment code>  (176) 
nan

>  <Quatassemblies alias>  (176) 
nan

>  <Crystalforms upload name>  (176) 
nan

>  <Centroid res>  (176) 
nan

>  <ConformerSites upload name>  (176) 
nan

>  <energy_score>  (176) 
-14.426327

>  <original SMILES>  (176) 
CC[C@@H](N)COc1ccc2c(c1)CCC2=O

>  <exports>  (176) 
nan

>  <CrystalformSites upload name>  (176) 
nan

>  <name>  (176) 
OUBVVYKQTLBROG-SNVBAGLBSA-N

>  <HIPPO ID>  (176) 
120484

$$$$
OUBVVYKQTLBROG-JTQLQIEISA-N
     RDKit          3D

 16 17  0  0  0  0  0  0  0  0999 V2000
    3.3059   13.1906   26.9518 C   0  0  0  0  0  0  0  0  0  0  0  0
    4.8095   13.2751   26.7409 C   0  0  0  0  0  0  0  0  0  0  0  0
    5.4835   11.9600   26.3444 C   0  0  2  0  0  0  0  0  0  0  0  0
    5.4338   10.9583   27.4179 N   0  0  0  0  0  0  0  0  0  0  0  0
    6.9367   12.2057   25.8972 C   0  0  0  0  0  0  0  0  0  0  0  0
    7.5152   10.9530   25.5278 O   0  0  0  0  0  0  0  0  0  0  0  0
    8.6348   10.9896   24.7478 C   0  0  0  0  0  0  0  0  0  0  0  0
    8.9591    9.7481   24.1720 C   0  0  0  0  0  0  0  0  0  0  0  0
   10.0264    9.6090   23.2995 C   0  0  0  0  0  0  0  0  0  0  0  0
   10.7393   10.7502   23.0218 C   0  0  0  0  0  0  0  0  0  0  0  0
   10.4745   11.9848   23.5993 C   0  0  0  0  0  0  0  0  0  0  0  0
    9.4213   12.1158   24.4901 C   0  0  0  0  0  0  0  0  0  0  0  0
   11.4250   13.0385   23.1260 C   0  0  0  0  0  0  0  0  0  0  0  0
   12.2379   12.3582   22.0301 C   0  0  0  0  0  0  0  0  0  0  0  0
   11.8049   10.9085   22.0581 C   0  0  0  0  0  0  0  0  0  0  0  0
   12.2189    9.9842   21.3807 O   0  0  0  0  0  0  0  0  0  0  0  0
  1  2  1  0
  2  3  1  0
  3  4  1  1
  3  5  1  0
  5  6  1  0
  6  7  1  0
  7  8  2  0
  8  9  1  0
  9 10  2  0
 10 11  1  0
 11 12  2  0
 11 13  1  0
 13 14  1  0
 14 15  1  0
 15 16  2  0
 12  7  1  0
 15 10  1  0
M  END
>  <Crystalforms alias>  (177) 
nan

>  <original ID>  (177) 
OUBVVYKQTLBROG-JTQLQIEISA-N

>  <alias>  (177) 
None

>  <distance_score>  (177) 
1.120206

>  <CanonSites upload name>  (177) 
nan

>  <CanonSites alias>  (177) 
nan

>  <ConformerSites alias>  (177) 
nan

>  <observation_longname>  (177) 
nan

>  <CrystalformSites alias>  (177) 
nan

>  <tags>  (177) 
[]

>  <ref_mols>  (177) 
A1775a

>  <ref_pdb>  (177) 
A1775a

>  <Quatassemblies upload name>  (177) 
nan

>  <inchikey>  (177) 
OUBVVYKQTLBROG-JTQLQIEISA-N

>  <Experiment code>  (177) 
nan

>  <Quatassemblies alias>  (177) 
nan

>  <Crystalforms upload name>  (177) 
nan

>  <Centroid res>  (177) 
nan

>  <ConformerSites upload name>  (177) 
nan

>  <energy_score>  (177) 
-71.35886

>  <original SMILES>  (177) 
CC[C@H](N)COc1ccc2c(c1)CCC2=O

>  <exports>  (177) 
nan

>  <CrystalformSites upload name>  (177) 
nan

>  <name>  (177) 
OUBVVYKQTLBROG-JTQLQIEISA-N

>  <HIPPO ID>  (177) 
120485

$$$$
MXCMLFJOAPQFFK-LLVKDONJSA-N
     RDKit          3D

 16 16  0  0  0  0  0  0  0  0999 V2000
   13.6808   11.6112   20.5684 C   0  0  0  0  0  0  0  0  0  0  0  0
   12.6066   11.9896   21.5942 C   0  0  0  0  0  0  0  0  0  0  0  0
   11.7786   10.7823   22.0223 C   0  0  0  0  0  0  0  0  0  0  0  0
   11.9235    9.6645   21.5277 O   0  0  0  0  0  0  0  0  0  0  0  0
   10.7212   10.9469   23.0478 C   0  0  0  0  0  0  0  0  0  0  0  0
   10.4056   12.1788   23.6271 C   0  0  0  0  0  0  0  0  0  0  0  0
    9.3560   12.2730   24.5481 C   0  0  0  0  0  0  0  0  0  0  0  0
    8.6166   11.1409   24.8773 C   0  0  0  0  0  0  0  0  0  0  0  0
    7.5869   11.0737   25.7643 O   0  0  0  0  0  0  0  0  0  0  0  0
    6.9679   12.2970   26.1638 C   0  0  0  0  0  0  0  0  0  0  0  0
    5.8387   11.9417   27.1513 C   0  0  2  0  0  0  0  0  0  0  0  0
    4.9553   10.9221   26.5859 N   0  0  0  0  0  0  0  0  0  0  0  0
    5.0079   13.1380   27.6301 C   0  0  0  0  0  0  0  0  0  0  0  0
    4.2747   13.8967   26.5329 C   0  0  0  0  0  0  0  0  0  0  0  0
    8.9397    9.9177   24.2967 C   0  0  0  0  0  0  0  0  0  0  0  0
    9.9895    9.8113   23.3979 C   0  0  0  0  0  0  0  0  0  0  0  0
  1  2  1  0
  2  3  1  0
  3  4  2  0
  3  5  1  0
  5  6  2  0
  6  7  1  0
  7  8  2  0
  8  9  1  0
  9 10  1  0
 10 11  1  0
 11 12  1  6
 11 13  1  0
 13 14  1  0
  8 15  1  0
 15 16  2  0
 16  5  1  0
M  END
>  <Crystalforms alias>  (178) 
nan

>  <original ID>  (178) 
MXCMLFJOAPQFFK-LLVKDONJSA-N

>  <alias>  (178) 
None

>  <distance_score>  (178) 
0.403451

>  <CanonSites upload name>  (178) 
nan

>  <CanonSites alias>  (178) 
nan

>  <ConformerSites alias>  (178) 
nan

>  <observation_longname>  (178) 
nan

>  <CrystalformSites alias>  (178) 
nan

>  <tags>  (178) 
[]

>  <ref_mols>  (178) 
A1775a

>  <ref_pdb>  (178) 
A1775a

>  <Quatassemblies upload name>  (178) 
nan

>  <inchikey>  (178) 
MXCMLFJOAPQFFK-LLVKDONJSA-N

>  <Experiment code>  (178) 
nan

>  <Quatassemblies alias>  (178) 
nan

>  <Crystalforms upload name>  (178) 
nan

>  <Centroid res>  (178) 
nan

>  <ConformerSites upload name>  (178) 
nan

>  <energy_score>  (178) 
-19.721954

>  <original SMILES>  (178) 
CCC(=O)c1ccc(OC[C@H](N)CC)cc1

>  <exports>  (178) 
nan

>  <CrystalformSites upload name>  (178) 
nan

>  <name>  (178) 
MXCMLFJOAPQFFK-LLVKDONJSA-N

>  <HIPPO ID>  (178) 
120486

$$$$
MXCMLFJOAPQFFK-LLVKDONJSA-N
     RDKit          3D

 16 16  0  0  0  0  0  0  0  0999 V2000
   13.5927   11.6385   20.6434 C   0  0  0  0  0  0  0  0  0  0  0  0
   12.5221   12.0051   21.6845 C   0  0  0  0  0  0  0  0  0  0  0  0
   11.7150   10.7793   22.0991 C   0  0  0  0  0  0  0  0  0  0  0  0
   11.8860    9.6720   21.5858 O   0  0  0  0  0  0  0  0  0  0  0  0
   10.6457   10.9013   23.1219 C   0  0  0  0  0  0  0  0  0  0  0  0
    9.9501    9.7351   23.4371 C   0  0  0  0  0  0  0  0  0  0  0  0
    8.8447    9.7946   24.2708 C   0  0  0  0  0  0  0  0  0  0  0  0
    8.4258   10.9942   24.8391 C   0  0  0  0  0  0  0  0  0  0  0  0
    7.2682   10.8805   25.5445 O   0  0  0  0  0  0  0  0  0  0  0  0
    6.9338   11.8293   26.5531 C   0  0  0  0  0  0  0  0  0  0  0  0
    5.5542   12.4398   26.2560 C   0  0  2  0  0  0  0  0  0  0  0  0
    5.7039   13.3781   25.1495 N   0  0  0  0  0  0  0  0  0  0  0  0
    4.9756   13.1058   27.5131 C   0  0  0  0  0  0  0  0  0  0  0  0
    3.6849   13.8690   27.2639 C   0  0  0  0  0  0  0  0  0  0  0  0
    9.1440   12.1535   24.5676 C   0  0  0  0  0  0  0  0  0  0  0  0
   10.2536   12.1109   23.7044 C   0  0  0  0  0  0  0  0  0  0  0  0
  1  2  1  0
  2  3  1  0
  3  4  2  0
  3  5  1  0
  5  6  2  0
  6  7  1  0
  7  8  2  0
  8  9  1  0
  9 10  1  0
 10 11  1  0
 11 12  1  6
 11 13  1  0
 13 14  1  0
  8 15  1  0
 15 16  2  0
 16  5  1  0
M  END
>  <Crystalforms alias>  (179) 
nan

>  <original ID>  (179) 
MXCMLFJOAPQFFK-LLVKDONJSA-N

>  <alias>  (179) 
None

>  <distance_score>  (179) 
0.44283

>  <CanonSites upload name>  (179) 
nan

>  <CanonSites alias>  (179) 
nan

>  <ConformerSites alias>  (179) 
nan

>  <observation_longname>  (179) 
nan

>  <CrystalformSites alias>  (179) 
nan

>  <tags>  (179) 
[]

>  <ref_mols>  (179) 
A1775a

>  <ref_pdb>  (179) 
A1775a

>  <Quatassemblies upload name>  (179) 
nan

>  <inchikey>  (179) 
MXCMLFJOAPQFFK-LLVKDONJSA-N

>  <Experiment code>  (179) 
nan

>  <Quatassemblies alias>  (179) 
nan

>  <Crystalforms upload name>  (179) 
nan

>  <Centroid res>  (179) 
nan

>  <ConformerSites upload name>  (179) 
nan

>  <energy_score>  (179) 
-20.756677

>  <original SMILES>  (179) 
CCC(=O)c1ccc(OC[C@H](N)CC)cc1

>  <exports>  (179) 
nan

>  <CrystalformSites upload name>  (179) 
nan

>  <name>  (179) 
MXCMLFJOAPQFFK-LLVKDONJSA-N

>  <HIPPO ID>  (179) 
120487

$$$$
JYHZQBSBJFHAII-UHFFFAOYSA-N
     RDKit          3D

 16 17  0  0  0  0  0  0  0  0999 V2000
   12.1984    9.9582   21.4333 O   0  0  0  0  0  0  0  0  0  0  0  0
   11.7650   10.9035   22.0681 C   0  0  0  0  0  0  0  0  0  0  0  0
   12.1968   12.3525   22.0035 C   0  0  0  0  0  0  0  0  0  0  0  0
   11.1715   13.1074   22.8422 C   0  0  0  0  0  0  0  0  0  0  0  0
   10.3349   12.0374   23.4737 C   0  0  0  0  0  0  0  0  0  0  0  0
    9.2799   12.1869   24.3630 C   0  0  0  0  0  0  0  0  0  0  0  0
    8.5774   11.0442   24.7548 C   0  0  0  0  0  0  0  0  0  0  0  0
    7.5261   10.9961   25.6260 O   0  0  0  0  0  0  0  0  0  0  0  0
    6.8419   12.2149   25.9112 C   0  0  0  0  0  0  0  0  0  0  0  0
    5.8124   12.0102   27.0126 C   0  0  0  0  0  0  0  0  0  0  0  0
    4.9885   10.9759   26.7716 F   0  0  0  0  0  0  0  0  0  0  0  0
    5.0659   13.1263   27.1678 F   0  0  0  0  0  0  0  0  0  0  0  0
    6.4211   11.7858   28.2003 F   0  0  0  0  0  0  0  0  0  0  0  0
    8.9501    9.7835   24.2544 C   0  0  0  0  0  0  0  0  0  0  0  0
   10.0184    9.6273   23.3832 C   0  0  0  0  0  0  0  0  0  0  0  0
   10.6795   10.7735   23.0148 C   0  0  0  0  0  0  0  0  0  0  0  0
  1  2  2  0
  2  3  1  0
  3  4  1  0
  4  5  1  0
  5  6  2  0
  6  7  1  0
  7  8  1  0
  8  9  1  0
  9 10  1  0
 10 11  1  0
 10 12  1  0
 10 13  1  0
  7 14  2  0
 14 15  1  0
 15 16  2  0
 16  2  1  0
 16  5  1  0
M  END
>  <Crystalforms alias>  (180) 
nan

>  <original ID>  (180) 
JYHZQBSBJFHAII-UHFFFAOYSA-N

>  <alias>  (180) 
None

>  <distance_score>  (180) 
1.144778

>  <CanonSites upload name>  (180) 
nan

>  <CanonSites alias>  (180) 
nan

>  <ConformerSites alias>  (180) 
nan

>  <observation_longname>  (180) 
nan

>  <CrystalformSites alias>  (180) 
nan

>  <tags>  (180) 
[]

>  <ref_mols>  (180) 
A1775a

>  <ref_pdb>  (180) 
A1775a

>  <Quatassemblies upload name>  (180) 
nan

>  <inchikey>  (180) 
JYHZQBSBJFHAII-UHFFFAOYSA-N

>  <Experiment code>  (180) 
nan

>  <Quatassemblies alias>  (180) 
nan

>  <Crystalforms upload name>  (180) 
nan

>  <Centroid res>  (180) 
nan

>  <ConformerSites upload name>  (180) 
nan

>  <energy_score>  (180) 
-18.204789

>  <original SMILES>  (180) 
O=C1CCc2cc(OCC(F)(F)F)ccc21

>  <exports>  (180) 
nan

>  <CrystalformSites upload name>  (180) 
nan

>  <name>  (180) 
JYHZQBSBJFHAII-UHFFFAOYSA-N

>  <HIPPO ID>  (180) 
120818

$$$$
QSBAFYXUIVJTKP-UHFFFAOYSA-N
     RDKit          3D

 16 16  0  0  0  0  0  0  0  0999 V2000
   13.6722   11.6134   20.5757 C   0  0  0  0  0  0  0  0  0  0  0  0
   12.5977   11.9851   21.6046 C   0  0  0  0  0  0  0  0  0  0  0  0
   11.7740   10.7721   22.0272 C   0  0  0  0  0  0  0  0  0  0  0  0
   11.9190    9.6606   21.5187 O   0  0  0  0  0  0  0  0  0  0  0  0
   10.7174   10.9255   23.0554 C   0  0  0  0  0  0  0  0  0  0  0  0
    9.9812    9.7877   23.3919 C   0  0  0  0  0  0  0  0  0  0  0  0
    8.9259    9.8863   24.2862 C   0  0  0  0  0  0  0  0  0  0  0  0
    8.5988   11.1065   24.8668 C   0  0  0  0  0  0  0  0  0  0  0  0
    7.5619   11.0579   25.7509 O   0  0  0  0  0  0  0  0  0  0  0  0
    6.7371   12.2220   25.7995 C   0  0  0  0  0  0  0  0  0  0  0  0
    5.5496   11.9947   26.7170 C   0  0  0  0  0  0  0  0  0  0  0  0
    5.9359   11.9635   28.0126 F   0  0  0  0  0  0  0  0  0  0  0  0
    4.9131   10.8388   26.4454 F   0  0  0  0  0  0  0  0  0  0  0  0
    4.6555   12.9992   26.5850 F   0  0  0  0  0  0  0  0  0  0  0  0
    9.3539   12.2378   24.5662 C   0  0  0  0  0  0  0  0  0  0  0  0
   10.4082   12.1509   23.6512 C   0  0  0  0  0  0  0  0  0  0  0  0
  1  2  1  0
  2  3  1  0
  3  4  2  0
  3  5  1  0
  5  6  2  0
  6  7  1  0
  7  8  2  0
  8  9  1  0
  9 10  1  0
 10 11  1  0
 11 12  1  0
 11 13  1  0
 11 14  1  0
  8 15  1  0
 15 16  2  0
 16  5  1  0
M  END
>  <Crystalforms alias>  (181) 
nan

>  <original ID>  (181) 
QSBAFYXUIVJTKP-UHFFFAOYSA-N

>  <alias>  (181) 
None

>  <distance_score>  (181) 
0.368926

>  <CanonSites upload name>  (181) 
nan

>  <CanonSites alias>  (181) 
nan

>  <ConformerSites alias>  (181) 
nan

>  <observation_longname>  (181) 
nan

>  <CrystalformSites alias>  (181) 
nan

>  <tags>  (181) 
[]

>  <ref_mols>  (181) 
A1775a

>  <ref_pdb>  (181) 
A1775a

>  <Quatassemblies upload name>  (181) 
nan

>  <inchikey>  (181) 
QSBAFYXUIVJTKP-UHFFFAOYSA-N

>  <Experiment code>  (181) 
nan

>  <Quatassemblies alias>  (181) 
nan

>  <Crystalforms upload name>  (181) 
nan

>  <Centroid res>  (181) 
nan

>  <ConformerSites upload name>  (181) 
nan

>  <energy_score>  (181) 
-25.44125

>  <original SMILES>  (181) 
CCC(=O)c1ccc(OCC(F)(F)F)cc1

>  <exports>  (181) 
nan

>  <CrystalformSites upload name>  (181) 
nan

>  <name>  (181) 
QSBAFYXUIVJTKP-UHFFFAOYSA-N

>  <HIPPO ID>  (181) 
120819

$$$$
ACEHSMIZLXAJTK-UHFFFAOYSA-N
     RDKit          3D

 17 18  0  0  0  0  0  0  0  0999 V2000
    4.4572   13.9328   26.6403 C   0  0  0  0  0  0  0  0  0  0  0  0
    4.2995   12.4849   26.6747 N   0  0  0  0  0  0  0  0  0  0  0  0
    3.4189   12.1433   27.7928 C   0  0  0  0  0  0  0  0  0  0  0  0
    5.5816   11.7721   26.7965 C   0  0  0  0  0  0  0  0  0  0  0  0
    6.6234   12.0771   25.7061 C   0  0  0  0  0  0  0  0  0  0  0  0
    7.7013   11.1568   25.8771 O   0  0  0  0  0  0  0  0  0  0  0  0
    8.6390   11.1676   24.8807 C   0  0  0  0  0  0  0  0  0  0  0  0
    8.9076    9.9063   24.3217 C   0  0  0  0  0  0  0  0  0  0  0  0
    9.9277    9.7274   23.3996 C   0  0  0  0  0  0  0  0  0  0  0  0
   10.6475   10.8477   23.0503 C   0  0  0  0  0  0  0  0  0  0  0  0
   10.4056   12.1175   23.5656 C   0  0  0  0  0  0  0  0  0  0  0  0
    9.3978   12.2848   24.5038 C   0  0  0  0  0  0  0  0  0  0  0  0
    9.1709   13.5023   25.0766 O   0  0  0  0  0  0  0  0  0  0  0  0
   11.3385   13.1326   22.9791 C   0  0  0  0  0  0  0  0  0  0  0  0
   12.2166   12.3549   22.0068 C   0  0  0  0  0  0  0  0  0  0  0  0
   11.7298   10.9259   22.0915 C   0  0  0  0  0  0  0  0  0  0  0  0
   12.1253    9.9583   21.4649 O   0  0  0  0  0  0  0  0  0  0  0  0
  1  2  1  0
  2  3  1  0
  2  4  1  0
  4  5  1  0
  5  6  1  0
  6  7  1  0
  7  8  2  0
  8  9  1  0
  9 10  2  0
 10 11  1  0
 11 12  2  0
 12 13  1  0
 11 14  1  0
 14 15  1  0
 15 16  1  0
 16 17  2  0
 12  7  1  0
 16 10  1  0
M  END
>  <Crystalforms alias>  (182) 
nan

>  <original ID>  (182) 
ACEHSMIZLXAJTK-UHFFFAOYSA-N

>  <alias>  (182) 
None

>  <distance_score>  (182) 
1.151256

>  <CanonSites upload name>  (182) 
nan

>  <CanonSites alias>  (182) 
nan

>  <ConformerSites alias>  (182) 
nan

>  <observation_longname>  (182) 
nan

>  <CrystalformSites alias>  (182) 
nan

>  <tags>  (182) 
[]

>  <ref_mols>  (182) 
A1775a

>  <ref_pdb>  (182) 
A1775a

>  <Quatassemblies upload name>  (182) 
nan

>  <inchikey>  (182) 
ACEHSMIZLXAJTK-UHFFFAOYSA-N

>  <Experiment code>  (182) 
nan

>  <Quatassemblies alias>  (182) 
nan

>  <Crystalforms upload name>  (182) 
nan

>  <Centroid res>  (182) 
nan

>  <ConformerSites upload name>  (182) 
nan

>  <energy_score>  (182) 
-29.827254

>  <original SMILES>  (182) 
CN(C)CCOc1ccc2c(c1O)CCC2=O

>  <exports>  (182) 
nan

>  <CrystalformSites upload name>  (182) 
nan

>  <name>  (182) 
ACEHSMIZLXAJTK-UHFFFAOYSA-N

>  <HIPPO ID>  (182) 
123477

$$$$
LRFODGQPKYYCPM-GFCCVEGCSA-N
     RDKit          3D

 17 17  0  0  0  0  0  0  0  0999 V2000
    3.9756   10.3223   27.9881 C   0  0  0  0  0  0  0  0  0  0  0  0
    5.3305   10.9593   27.7251 C   0  0  0  0  0  0  0  0  0  0  0  0
    5.3544   11.9288   26.5326 C   0  0  1  0  0  0  0  0  0  0  0  0
    4.6586   13.1818   26.8188 N   0  0  0  0  0  0  0  0  0  0  0  0
    6.7947   12.2160   26.0932 C   0  0  0  0  0  0  0  0  0  0  0  0
    7.3949   10.9739   25.7405 O   0  0  0  0  0  0  0  0  0  0  0  0
    8.5170   11.0366   24.9807 C   0  0  0  0  0  0  0  0  0  0  0  0
    9.3565   12.1363   24.8650 C   0  0  0  0  0  0  0  0  0  0  0  0
   10.4443   12.0784   24.0004 C   0  0  0  0  0  0  0  0  0  0  0  0
   10.6629   10.9341   23.2287 C   0  0  0  0  0  0  0  0  0  0  0  0
   11.6767   10.8620   22.1564 C   0  0  0  0  0  0  0  0  0  0  0  0
   11.8247    9.7690   21.6039 O   0  0  0  0  0  0  0  0  0  0  0  0
   12.5095   12.1008   21.7954 C   0  0  0  0  0  0  0  0  0  0  0  0
   11.7356   13.3657   21.4261 C   0  0  0  0  0  0  0  0  0  0  0  0
   13.5779   11.6924   20.7640 C   0  0  0  0  0  0  0  0  0  0  0  0
    9.8695    9.8039   23.4184 C   0  0  0  0  0  0  0  0  0  0  0  0
    8.8075    9.8610   24.2988 C   0  0  0  0  0  0  0  0  0  0  0  0
  1  2  1  0
  2  3  1  0
  3  4  1  1
  3  5  1  0
  5  6  1  0
  6  7  1  0
  7  8  2  0
  8  9  1  0
  9 10  2  0
 10 11  1  0
 11 12  2  0
 11 13  1  0
 13 14  1  0
 13 15  1  0
 10 16  1  0
 16 17  2  0
 17  7  1  0
M  END
>  <Crystalforms alias>  (183) 
nan

>  <original ID>  (183) 
LRFODGQPKYYCPM-GFCCVEGCSA-N

>  <alias>  (183) 
None

>  <distance_score>  (183) 
0.90585

>  <CanonSites upload name>  (183) 
nan

>  <CanonSites alias>  (183) 
nan

>  <ConformerSites alias>  (183) 
nan

>  <observation_longname>  (183) 
nan

>  <CrystalformSites alias>  (183) 
nan

>  <tags>  (183) 
[]

>  <ref_mols>  (183) 
A1775a

>  <ref_pdb>  (183) 
A1775a

>  <Quatassemblies upload name>  (183) 
nan

>  <inchikey>  (183) 
LRFODGQPKYYCPM-GFCCVEGCSA-N

>  <Experiment code>  (183) 
nan

>  <Quatassemblies alias>  (183) 
nan

>  <Crystalforms upload name>  (183) 
nan

>  <Centroid res>  (183) 
nan

>  <ConformerSites upload name>  (183) 
nan

>  <energy_score>  (183) 
-17.422071

>  <original SMILES>  (183) 
CC[C@@H](N)COc1ccc(C(=O)C(C)C)cc1

>  <exports>  (183) 
nan

>  <CrystalformSites upload name>  (183) 
nan

>  <name>  (183) 
LRFODGQPKYYCPM-GFCCVEGCSA-N

>  <HIPPO ID>  (183) 
123705

$$$$
LRFODGQPKYYCPM-GFCCVEGCSA-N
     RDKit          3D

 17 17  0  0  0  0  0  0  0  0999 V2000
    4.3565   11.9307   28.9469 C   0  0  0  0  0  0  0  0  0  0  0  0
    5.5780   12.1931   28.0750 C   0  0  0  0  0  0  0  0  0  0  0  0
    5.2851   12.0651   26.5680 C   0  0  1  0  0  0  0  0  0  0  0  0
    4.2638   13.0312   26.1579 N   0  0  0  0  0  0  0  0  0  0  0  0
    6.5692   12.2381   25.7415 C   0  0  0  0  0  0  0  0  0  0  0  0
    7.4212   11.1079   25.9307 O   0  0  0  0  0  0  0  0  0  0  0  0
    8.4883   11.1138   25.0795 C   0  0  0  0  0  0  0  0  0  0  0  0
    9.3420   12.2010   24.9332 C   0  0  0  0  0  0  0  0  0  0  0  0
   10.4086   12.1244   24.0431 C   0  0  0  0  0  0  0  0  0  0  0  0
   10.5991   10.9720   23.2764 C   0  0  0  0  0  0  0  0  0  0  0  0
   11.6163   10.8752   22.2045 C   0  0  0  0  0  0  0  0  0  0  0  0
   11.7538    9.7751   21.6644 O   0  0  0  0  0  0  0  0  0  0  0  0
   12.4679   12.1020   21.8331 C   0  0  0  0  0  0  0  0  0  0  0  0
   11.7116   13.3736   21.4525 C   0  0  0  0  0  0  0  0  0  0  0  0
   13.5306   11.6818   20.8007 C   0  0  0  0  0  0  0  0  0  0  0  0
    9.7841    9.8582   23.4876 C   0  0  0  0  0  0  0  0  0  0  0  0
    8.7397    9.9329   24.3947 C   0  0  0  0  0  0  0  0  0  0  0  0
  1  2  1  0
  2  3  1  0
  3  4  1  6
  3  5  1  0
  5  6  1  0
  6  7  1  0
  7  8  2  0
  8  9  1  0
  9 10  2  0
 10 11  1  0
 11 12  2  0
 11 13  1  0
 13 14  1  0
 13 15  1  0
 10 16  1  0
 16 17  2  0
 17  7  1  0
M  END
>  <Crystalforms alias>  (184) 
nan

>  <original ID>  (184) 
LRFODGQPKYYCPM-GFCCVEGCSA-N

>  <alias>  (184) 
None

>  <distance_score>  (184) 
0.950872

>  <CanonSites upload name>  (184) 
nan

>  <CanonSites alias>  (184) 
nan

>  <ConformerSites alias>  (184) 
nan

>  <observation_longname>  (184) 
nan

>  <CrystalformSites alias>  (184) 
nan

>  <tags>  (184) 
[]

>  <ref_mols>  (184) 
A1775a

>  <ref_pdb>  (184) 
A1775a

>  <Quatassemblies upload name>  (184) 
nan

>  <inchikey>  (184) 
LRFODGQPKYYCPM-GFCCVEGCSA-N

>  <Experiment code>  (184) 
nan

>  <Quatassemblies alias>  (184) 
nan

>  <Crystalforms upload name>  (184) 
nan

>  <Centroid res>  (184) 
nan

>  <ConformerSites upload name>  (184) 
nan

>  <energy_score>  (184) 
-25.440846

>  <original SMILES>  (184) 
CC[C@@H](N)COc1ccc(C(=O)C(C)C)cc1

>  <exports>  (184) 
nan

>  <CrystalformSites upload name>  (184) 
nan

>  <name>  (184) 
LRFODGQPKYYCPM-GFCCVEGCSA-N

>  <HIPPO ID>  (184) 
123706

$$$$
AXRBZFUYXIDMLC-UHFFFAOYSA-N
     RDKit          3D

 17 17  0  0  0  0  0  0  0  0999 V2000
   11.7228   13.3747   21.4370 C   0  0  0  0  0  0  0  0  0  0  0  0
   12.4844   12.1068   21.8200 C   0  0  0  0  0  0  0  0  0  0  0  0
   13.5535   11.6911   20.7908 C   0  0  0  0  0  0  0  0  0  0  0  0
   11.6420   10.8734   22.1805 C   0  0  0  0  0  0  0  0  0  0  0  0
   11.7933    9.7777   21.6340 O   0  0  0  0  0  0  0  0  0  0  0  0
   10.6149   10.9530   23.2423 C   0  0  0  0  0  0  0  0  0  0  0  0
   10.3700   12.1058   23.9928 C   0  0  0  0  0  0  0  0  0  0  0  0
    9.2739   12.1641   24.8522 C   0  0  0  0  0  0  0  0  0  0  0  0
    8.4538   11.0530   24.9956 C   0  0  0  0  0  0  0  0  0  0  0  0
    7.3413   10.9631   25.7690 O   0  0  0  0  0  0  0  0  0  0  0  0
    6.8006   12.1706   26.2971 C   0  0  0  0  0  0  0  0  0  0  0  0
    5.6613   11.8299   27.2345 C   0  0  0  0  0  0  0  0  0  0  0  0
    6.1003   11.0794   28.2690 F   0  0  0  0  0  0  0  0  0  0  0  0
    5.1317   12.9553   27.7583 F   0  0  0  0  0  0  0  0  0  0  0  0
    4.6817   11.1458   26.6168 F   0  0  0  0  0  0  0  0  0  0  0  0
    8.7659    9.8757   24.3237 C   0  0  0  0  0  0  0  0  0  0  0  0
    9.8326    9.8185   23.4461 C   0  0  0  0  0  0  0  0  0  0  0  0
  1  2  1  0
  2  3  1  0
  2  4  1  0
  4  5  2  0
  4  6  1  0
  6  7  2  0
  7  8  1  0
  8  9  2  0
  9 10  1  0
 10 11  1  0
 11 12  1  0
 12 13  1  0
 12 14  1  0
 12 15  1  0
  9 16  1  0
 16 17  2  0
 17  6  1  0
M  END
>  <Crystalforms alias>  (185) 
nan

>  <original ID>  (185) 
AXRBZFUYXIDMLC-UHFFFAOYSA-N

>  <alias>  (185) 
None

>  <distance_score>  (185) 
0.940444

>  <CanonSites upload name>  (185) 
nan

>  <CanonSites alias>  (185) 
nan

>  <ConformerSites alias>  (185) 
nan

>  <observation_longname>  (185) 
nan

>  <CrystalformSites alias>  (185) 
nan

>  <tags>  (185) 
[]

>  <ref_mols>  (185) 
A1775a

>  <ref_pdb>  (185) 
A1775a

>  <Quatassemblies upload name>  (185) 
nan

>  <inchikey>  (185) 
AXRBZFUYXIDMLC-UHFFFAOYSA-N

>  <Experiment code>  (185) 
nan

>  <Quatassemblies alias>  (185) 
nan

>  <Crystalforms upload name>  (185) 
nan

>  <Centroid res>  (185) 
nan

>  <ConformerSites upload name>  (185) 
nan

>  <energy_score>  (185) 
-7.402578

>  <original SMILES>  (185) 
CC(C)C(=O)c1ccc(OCC(F)(F)F)cc1

>  <exports>  (185) 
nan

>  <CrystalformSites upload name>  (185) 
nan

>  <name>  (185) 
AXRBZFUYXIDMLC-UHFFFAOYSA-N

>  <HIPPO ID>  (185) 
126163

$$$$
IGJKKMQGCPWIDT-UHFFFAOYSA-N
     RDKit          3D

 17 17  0  0  0  0  0  0  0  0999 V2000
   11.7272   13.3765   21.4266 C   0  0  0  0  0  0  0  0  0  0  0  0
   12.4875   12.1078   21.8132 C   0  0  0  0  0  0  0  0  0  0  0  0
   13.5509   11.6831   20.7836 C   0  0  0  0  0  0  0  0  0  0  0  0
   11.6382   10.8822   22.1900 C   0  0  0  0  0  0  0  0  0  0  0  0
   11.7756    9.7796   21.6548 O   0  0  0  0  0  0  0  0  0  0  0  0
   10.6206   10.9857   23.2591 C   0  0  0  0  0  0  0  0  0  0  0  0
   10.4177   12.1478   24.0068 C   0  0  0  0  0  0  0  0  0  0  0  0
    9.3354   12.2411   24.8773 C   0  0  0  0  0  0  0  0  0  0  0  0
    8.4869   11.1541   25.0402 C   0  0  0  0  0  0  0  0  0  0  0  0
    7.3823   11.1103   25.8305 O   0  0  0  0  0  0  0  0  0  0  0  0
    6.9904   12.3169   26.4812 C   0  0  0  0  0  0  0  0  0  0  0  0
    5.8181   12.0169   27.4119 C   0  0  0  0  0  0  0  0  0  0  0  0
    5.3238   13.2530   28.1448 C   0  0  0  0  0  0  0  0  0  0  0  0
    4.6797   11.3738   26.6680 C   0  0  0  0  0  0  0  0  0  0  0  0
    6.2471   11.1276   28.3546 F   0  0  0  0  0  0  0  0  0  0  0  0
    8.7530    9.9655   24.3671 C   0  0  0  0  0  0  0  0  0  0  0  0
    9.8079    9.8745   23.4755 C   0  0  0  0  0  0  0  0  0  0  0  0
  1  2  1  0
  2  3  1  0
  2  4  1  0
  4  5  2  0
  4  6  1  0
  6  7  2  0
  7  8  1  0
  8  9  2  0
  9 10  1  0
 10 11  1  0
 11 12  1  0
 12 13  1  0
 12 14  1  0
 12 15  1  0
  9 16  1  0
 16 17  2  0
 17  6  1  0
M  END
>  <Crystalforms alias>  (186) 
nan

>  <original ID>  (186) 
IGJKKMQGCPWIDT-UHFFFAOYSA-N

>  <alias>  (186) 
None

>  <distance_score>  (186) 
0.962479

>  <CanonSites upload name>  (186) 
nan

>  <CanonSites alias>  (186) 
nan

>  <ConformerSites alias>  (186) 
nan

>  <observation_longname>  (186) 
nan

>  <CrystalformSites alias>  (186) 
nan

>  <tags>  (186) 
[]

>  <ref_mols>  (186) 
A1775a

>  <ref_pdb>  (186) 
A1775a

>  <Quatassemblies upload name>  (186) 
nan

>  <inchikey>  (186) 
IGJKKMQGCPWIDT-UHFFFAOYSA-N

>  <Experiment code>  (186) 
nan

>  <Quatassemblies alias>  (186) 
nan

>  <Crystalforms upload name>  (186) 
nan

>  <Centroid res>  (186) 
nan

>  <ConformerSites upload name>  (186) 
nan

>  <energy_score>  (186) 
-33.2441

>  <original SMILES>  (186) 
CC(C)C(=O)c1ccc(OCC(C)(C)F)cc1

>  <exports>  (186) 
nan

>  <CrystalformSites upload name>  (186) 
nan

>  <name>  (186) 
IGJKKMQGCPWIDT-UHFFFAOYSA-N

>  <HIPPO ID>  (186) 
127006

$$$$
ZYLJLWLQPBRDLN-UHFFFAOYSA-N
     RDKit          3D

 13 13  0  0  0  0  0  0  0  0999 V2000
    5.5685   11.9785   26.9226 C   0  0  0  0  0  0  0  0  0  0  0  0
    6.8210   12.2695   26.1217 C   0  0  0  0  0  0  0  0  0  0  0  0
    7.3820   11.0315   25.7068 O   0  0  0  0  0  0  0  0  0  0  0  0
    8.4803   11.0910   24.8998 C   0  0  0  0  0  0  0  0  0  0  0  0
    9.2485   12.2195   24.6288 C   0  0  0  0  0  0  0  0  0  0  0  0
   10.3247   12.1380   23.7399 C   0  0  0  0  0  0  0  0  0  0  0  0
   10.6432   10.9182   23.1347 C   0  0  0  0  0  0  0  0  0  0  0  0
   11.7040   10.7816   22.1095 C   0  0  0  0  0  0  0  0  0  0  0  0
   11.8744    9.6690   21.6111 O   0  0  0  0  0  0  0  0  0  0  0  0
   12.4762   12.0254   21.7073 C   0  0  0  0  0  0  0  0  0  0  0  0
   13.7049   11.6008   20.4883 Cl  0  0  0  0  0  0  0  0  0  0  0  0
    9.9051    9.7782   23.4500 C   0  0  0  0  0  0  0  0  0  0  0  0
    8.8287    9.8754   24.3189 C   0  0  0  0  0  0  0  0  0  0  0  0
  1  2  1  0
  2  3  1  0
  3  4  1  0
  4  5  2  0
  5  6  1  0
  6  7  2  0
  7  8  1  0
  8  9  2  0
  8 10  1  0
 10 11  1  0
  7 12  1  0
 12 13  2  0
 13  4  1  0
M  END
>  <Crystalforms alias>  (187) 
nan

>  <original ID>  (187) 
ZYLJLWLQPBRDLN-UHFFFAOYSA-N

>  <alias>  (187) 
None

>  <distance_score>  (187) 
0.397567

>  <CanonSites upload name>  (187) 
nan

>  <CanonSites alias>  (187) 
nan

>  <ConformerSites alias>  (187) 
nan

>  <observation_longname>  (187) 
nan

>  <CrystalformSites alias>  (187) 
nan

>  <tags>  (187) 
['Syndirella scaffold']

>  <ref_mols>  (187) 
A1775a

>  <ref_pdb>  (187) 
A1775a

>  <Quatassemblies upload name>  (187) 
nan

>  <inchikey>  (187) 
ZYLJLWLQPBRDLN-UHFFFAOYSA-N

>  <Experiment code>  (187) 
nan

>  <Quatassemblies alias>  (187) 
nan

>  <Crystalforms upload name>  (187) 
nan

>  <Centroid res>  (187) 
nan

>  <ConformerSites upload name>  (187) 
nan

>  <energy_score>  (187) 
-10.519338

>  <original SMILES>  (187) 
CCOc1ccc(C(=O)CCl)cc1

>  <exports>  (187) 
nan

>  <CrystalformSites upload name>  (187) 
nan

>  <name>  (187) 
ZYLJLWLQPBRDLN-UHFFFAOYSA-N

>  <HIPPO ID>  (187) 
127321

$$$$
OBUGAMBYISEWLC-UHFFFAOYSA-N
     RDKit          3D

 14 14  0  0  0  0  0  0  0  0999 V2000
    5.5732   12.0375   26.9352 C   0  0  0  0  0  0  0  0  0  0  0  0
    6.8486   12.2964   26.1594 C   0  0  0  0  0  0  0  0  0  0  0  0
    7.3792   11.0437   25.7481 O   0  0  0  0  0  0  0  0  0  0  0  0
    8.4705   11.0769   24.9310 C   0  0  0  0  0  0  0  0  0  0  0  0
    9.2977   12.1659   24.6909 C   0  0  0  0  0  0  0  0  0  0  0  0
   10.3685   12.0440   23.7970 C   0  0  0  0  0  0  0  0  0  0  0  0
   10.6168   10.8335   23.1280 C   0  0  0  0  0  0  0  0  0  0  0  0
   11.6929   10.7336   22.1009 C   0  0  0  0  0  0  0  0  0  0  0  0
   11.9057    9.6526   21.5561 O   0  0  0  0  0  0  0  0  0  0  0  0
   12.4506   12.0007   21.7276 C   0  0  0  0  0  0  0  0  0  0  0  0
   13.6864   11.6167   20.4964 Cl  0  0  0  0  0  0  0  0  0  0  0  0
    9.7826    9.7443   23.3938 C   0  0  0  0  0  0  0  0  0  0  0  0
    9.9050    8.5412   22.7630 O   0  0  0  0  0  0  0  0  0  0  0  0
    8.7425    9.8678   24.3028 C   0  0  0  0  0  0  0  0  0  0  0  0
  1  2  1  0
  2  3  1  0
  3  4  1  0
  4  5  2  0
  5  6  1  0
  6  7  2  0
  7  8  1  0
  8  9  2  0
  8 10  1  0
 10 11  1  0
  7 12  1  0
 12 13  1  0
 12 14  2  0
 14  4  1  0
M  END
>  <Crystalforms alias>  (188) 
nan

>  <original ID>  (188) 
OBUGAMBYISEWLC-UHFFFAOYSA-N

>  <alias>  (188) 
None

>  <distance_score>  (188) 
0.383122

>  <CanonSites upload name>  (188) 
nan

>  <CanonSites alias>  (188) 
nan

>  <ConformerSites alias>  (188) 
nan

>  <observation_longname>  (188) 
nan

>  <CrystalformSites alias>  (188) 
nan

>  <tags>  (188) 
[]

>  <ref_mols>  (188) 
A1775a

>  <ref_pdb>  (188) 
A1775a

>  <Quatassemblies upload name>  (188) 
nan

>  <inchikey>  (188) 
OBUGAMBYISEWLC-UHFFFAOYSA-N

>  <Experiment code>  (188) 
nan

>  <Quatassemblies alias>  (188) 
nan

>  <Crystalforms upload name>  (188) 
nan

>  <Centroid res>  (188) 
nan

>  <ConformerSites upload name>  (188) 
nan

>  <energy_score>  (188) 
-22.955469

>  <original SMILES>  (188) 
CCOc1ccc(C(=O)CCl)c(O)c1

>  <exports>  (188) 
nan

>  <CrystalformSites upload name>  (188) 
nan

>  <name>  (188) 
OBUGAMBYISEWLC-UHFFFAOYSA-N

>  <HIPPO ID>  (188) 
127324

$$$$
WWJWIBDPQFFRRS-UHFFFAOYSA-N
     RDKit          3D

 14 14  0  0  0  0  0  0  0  0999 V2000
   11.0460    7.8744   23.2813 C   0  0  0  0  0  0  0  0  0  0  0  0
   10.0228    8.7453   23.8776 C   0  0  0  0  0  0  0  0  0  0  0  0
    9.4576    9.5857   22.9002 O   0  0  0  0  0  0  0  0  0  0  0  0
    9.5072   10.8285   23.4623 C   0  0  0  0  0  0  0  0  0  0  0  0
    8.5475   11.0999   24.4337 C   0  0  0  0  0  0  0  0  0  0  0  0
    8.6569   12.2495   25.1699 C   0  0  0  0  0  0  0  0  0  0  0  0
    7.7571   12.4021   26.1746 O   0  0  0  0  0  0  0  0  0  0  0  0
    9.6740   13.1607   24.9063 C   0  0  0  0  0  0  0  0  0  0  0  0
   10.6193   12.8927   23.9036 C   0  0  0  0  0  0  0  0  0  0  0  0
   10.5599   11.6993   23.1795 C   0  0  0  0  0  0  0  0  0  0  0  0
   11.6054   11.2988   22.1891 C   0  0  0  0  0  0  0  0  0  0  0  0
   11.6865   10.1497   21.7732 O   0  0  0  0  0  0  0  0  0  0  0  0
   12.5320   12.3514   21.6874 C   0  0  0  0  0  0  0  0  0  0  0  0
   13.6802   11.6435   20.5025 Cl  0  0  0  0  0  0  0  0  0  0  0  0
  1  2  1  0
  2  3  1  0
  3  4  1  0
  4  5  2  0
  5  6  1  0
  6  7  1  0
  6  8  2  0
  8  9  1  0
  9 10  2  0
 10 11  1  0
 11 12  2  0
 11 13  1  0
 13 14  1  0
 10  4  1  0
M  END
>  <Crystalforms alias>  (189) 
nan

>  <original ID>  (189) 
WWJWIBDPQFFRRS-UHFFFAOYSA-N

>  <alias>  (189) 
None

>  <distance_score>  (189) 
1.206611

>  <CanonSites upload name>  (189) 
nan

>  <CanonSites alias>  (189) 
nan

>  <ConformerSites alias>  (189) 
nan

>  <observation_longname>  (189) 
nan

>  <CrystalformSites alias>  (189) 
nan

>  <tags>  (189) 
[]

>  <ref_mols>  (189) 
A1775a

>  <ref_pdb>  (189) 
A1775a

>  <Quatassemblies upload name>  (189) 
nan

>  <inchikey>  (189) 
WWJWIBDPQFFRRS-UHFFFAOYSA-N

>  <Experiment code>  (189) 
nan

>  <Quatassemblies alias>  (189) 
nan

>  <Crystalforms upload name>  (189) 
nan

>  <Centroid res>  (189) 
nan

>  <ConformerSites upload name>  (189) 
nan

>  <energy_score>  (189) 
-15.848289

>  <original SMILES>  (189) 
CCOc1cc(O)ccc1C(=O)CCl

>  <exports>  (189) 
nan

>  <CrystalformSites upload name>  (189) 
nan

>  <name>  (189) 
WWJWIBDPQFFRRS-UHFFFAOYSA-N

>  <HIPPO ID>  (189) 
127325

$$$$
NEFVBCHVWLIJEM-UHFFFAOYSA-N
     RDKit          3D

 14 14  0  0  0  0  0  0  0  0999 V2000
    5.3845   12.1792   28.1980 C   0  0  0  0  0  0  0  0  0  0  0  0
    5.5981   11.8957   26.9074 C   0  0  0  0  0  0  0  0  0  0  0  0
    6.8389   12.2332   26.1477 C   0  0  0  0  0  0  0  0  0  0  0  0
    7.3859   11.0085   25.6825 O   0  0  0  0  0  0  0  0  0  0  0  0
    8.4879   11.0780   24.8841 C   0  0  0  0  0  0  0  0  0  0  0  0
    8.8422    9.8639   24.3031 C   0  0  0  0  0  0  0  0  0  0  0  0
    9.9204    9.7714   23.4376 C   0  0  0  0  0  0  0  0  0  0  0  0
   10.6535   10.9150   23.1250 C   0  0  0  0  0  0  0  0  0  0  0  0
   11.7143   10.7818   22.1002 C   0  0  0  0  0  0  0  0  0  0  0  0
   11.8859    9.6703   21.6000 O   0  0  0  0  0  0  0  0  0  0  0  0
   12.4846   12.0266   21.6997 C   0  0  0  0  0  0  0  0  0  0  0  0
   13.7143   11.6028   20.4817 Cl  0  0  0  0  0  0  0  0  0  0  0  0
   10.3293   12.1335   23.7305 C   0  0  0  0  0  0  0  0  0  0  0  0
    9.2508   12.2105   24.6171 C   0  0  0  0  0  0  0  0  0  0  0  0
  1  2  2  0
  2  3  1  0
  3  4  1  0
  4  5  1  0
  5  6  2  0
  6  7  1  0
  7  8  2  0
  8  9  1  0
  9 10  2  0
  9 11  1  0
 11 12  1  0
  8 13  1  0
 13 14  2  0
 14  5  1  0
M  END
>  <Crystalforms alias>  (190) 
nan

>  <original ID>  (190) 
NEFVBCHVWLIJEM-UHFFFAOYSA-N

>  <alias>  (190) 
None

>  <distance_score>  (190) 
0.391999

>  <CanonSites upload name>  (190) 
nan

>  <CanonSites alias>  (190) 
nan

>  <ConformerSites alias>  (190) 
nan

>  <observation_longname>  (190) 
nan

>  <CrystalformSites alias>  (190) 
nan

>  <tags>  (190) 
[]

>  <ref_mols>  (190) 
A1775a

>  <ref_pdb>  (190) 
A1775a

>  <Quatassemblies upload name>  (190) 
nan

>  <inchikey>  (190) 
NEFVBCHVWLIJEM-UHFFFAOYSA-N

>  <Experiment code>  (190) 
nan

>  <Quatassemblies alias>  (190) 
nan

>  <Crystalforms upload name>  (190) 
nan

>  <Centroid res>  (190) 
nan

>  <ConformerSites upload name>  (190) 
nan

>  <energy_score>  (190) 
-18.362662

>  <original SMILES>  (190) 
C=CCOc1ccc(C(=O)CCl)cc1

>  <exports>  (190) 
nan

>  <CrystalformSites upload name>  (190) 
nan

>  <name>  (190) 
NEFVBCHVWLIJEM-UHFFFAOYSA-N

>  <HIPPO ID>  (190) 
127335

$$$$
KLEUQKRCMYGEBO-UHFFFAOYSA-N
     RDKit          3D

 14 14  0  0  0  0  0  0  0  0999 V2000
    5.2133   12.0665   26.2492 C   0  0  0  0  0  0  0  0  0  0  0  0
    6.7166   12.2728   26.3144 C   0  0  0  0  0  0  0  0  0  0  0  0
    7.1036   12.5319   27.7617 C   0  0  0  0  0  0  0  0  0  0  0  0
    7.3476   11.0817   25.8486 O   0  0  0  0  0  0  0  0  0  0  0  0
    8.4282   11.1519   25.0207 C   0  0  0  0  0  0  0  0  0  0  0  0
    9.2285   12.2605   24.7702 C   0  0  0  0  0  0  0  0  0  0  0  0
   10.2926   12.1712   23.8590 C   0  0  0  0  0  0  0  0  0  0  0  0
   10.5758   10.9596   23.2167 C   0  0  0  0  0  0  0  0  0  0  0  0
   11.6337   10.8079   22.1846 C   0  0  0  0  0  0  0  0  0  0  0  0
   11.7982    9.6903   21.6940 O   0  0  0  0  0  0  0  0  0  0  0  0
   12.4132   12.0438   21.7696 C   0  0  0  0  0  0  0  0  0  0  0  0
   13.6319   11.6035   20.5405 Cl  0  0  0  0  0  0  0  0  0  0  0  0
    9.8084    9.8360   23.5155 C   0  0  0  0  0  0  0  0  0  0  0  0
    8.7436    9.9442   24.4006 C   0  0  0  0  0  0  0  0  0  0  0  0
  1  2  1  0
  2  3  1  0
  2  4  1  0
  4  5  1  0
  5  6  2  0
  6  7  1  0
  7  8  2  0
  8  9  1  0
  9 10  2  0
  9 11  1  0
 11 12  1  0
  8 13  1  0
 13 14  2  0
 14  5  1  0
M  END
>  <Crystalforms alias>  (191) 
nan

>  <original ID>  (191) 
KLEUQKRCMYGEBO-UHFFFAOYSA-N

>  <alias>  (191) 
None

>  <distance_score>  (191) 
0.483038

>  <CanonSites upload name>  (191) 
nan

>  <CanonSites alias>  (191) 
nan

>  <ConformerSites alias>  (191) 
nan

>  <observation_longname>  (191) 
nan

>  <CrystalformSites alias>  (191) 
nan

>  <tags>  (191) 
[]

>  <ref_mols>  (191) 
A1775a

>  <ref_pdb>  (191) 
A1775a

>  <Quatassemblies upload name>  (191) 
nan

>  <inchikey>  (191) 
KLEUQKRCMYGEBO-UHFFFAOYSA-N

>  <Experiment code>  (191) 
nan

>  <Quatassemblies alias>  (191) 
nan

>  <Crystalforms upload name>  (191) 
nan

>  <Centroid res>  (191) 
nan

>  <ConformerSites upload name>  (191) 
nan

>  <energy_score>  (191) 
-10.660749

>  <original SMILES>  (191) 
CC(C)Oc1ccc(C(=O)CCl)cc1

>  <exports>  (191) 
nan

>  <CrystalformSites upload name>  (191) 
nan

>  <name>  (191) 
KLEUQKRCMYGEBO-UHFFFAOYSA-N

>  <HIPPO ID>  (191) 
127339

$$$$
JODWHHMIVWXMRT-UHFFFAOYSA-N
     RDKit          3D

 14 14  0  0  0  0  0  0  0  0999 V2000
    5.2327   10.5875   27.2736 C   0  0  0  0  0  0  0  0  0  0  0  0
    5.4948   12.0069   26.7938 C   0  0  0  0  0  0  0  0  0  0  0  0
    6.5108   12.0618   25.6606 C   0  0  0  0  0  0  0  0  0  0  0  0
    7.6957   11.3812   26.0611 O   0  0  0  0  0  0  0  0  0  0  0  0
    8.6069   11.3043   25.0502 C   0  0  0  0  0  0  0  0  0  0  0  0
    9.4134   12.3929   24.7435 C   0  0  0  0  0  0  0  0  0  0  0  0
   10.4170   12.2570   23.7867 C   0  0  0  0  0  0  0  0  0  0  0  0
   10.6280   11.0205   23.1624 C   0  0  0  0  0  0  0  0  0  0  0  0
   11.6744   10.8225   22.1288 C   0  0  0  0  0  0  0  0  0  0  0  0
   11.8108    9.6945   21.6559 O   0  0  0  0  0  0  0  0  0  0  0  0
   12.4794   12.0378   21.7004 C   0  0  0  0  0  0  0  0  0  0  0  0
   13.6984   11.5787   20.4890 Cl  0  0  0  0  0  0  0  0  0  0  0  0
    9.8240    9.9265   23.4974 C   0  0  0  0  0  0  0  0  0  0  0  0
    8.8099   10.0756   24.4347 C   0  0  0  0  0  0  0  0  0  0  0  0
  1  2  1  0
  2  3  1  0
  3  4  1  0
  4  5  1  0
  5  6  2  0
  6  7  1  0
  7  8  2  0
  8  9  1  0
  9 10  2  0
  9 11  1  0
 11 12  1  0
  8 13  1  0
 13 14  2  0
 14  5  1  0
M  END
>  <Crystalforms alias>  (192) 
nan

>  <original ID>  (192) 
JODWHHMIVWXMRT-UHFFFAOYSA-N

>  <alias>  (192) 
None

>  <distance_score>  (192) 
0.518499

>  <CanonSites upload name>  (192) 
nan

>  <CanonSites alias>  (192) 
nan

>  <ConformerSites alias>  (192) 
nan

>  <observation_longname>  (192) 
nan

>  <CrystalformSites alias>  (192) 
nan

>  <tags>  (192) 
[]

>  <ref_mols>  (192) 
A1775a

>  <ref_pdb>  (192) 
A1775a

>  <Quatassemblies upload name>  (192) 
nan

>  <inchikey>  (192) 
JODWHHMIVWXMRT-UHFFFAOYSA-N

>  <Experiment code>  (192) 
nan

>  <Quatassemblies alias>  (192) 
nan

>  <Crystalforms upload name>  (192) 
nan

>  <Centroid res>  (192) 
nan

>  <ConformerSites upload name>  (192) 
nan

>  <energy_score>  (192) 
-8.049997

>  <original SMILES>  (192) 
CCCOc1ccc(C(=O)CCl)cc1

>  <exports>  (192) 
nan

>  <CrystalformSites upload name>  (192) 
nan

>  <name>  (192) 
JODWHHMIVWXMRT-UHFFFAOYSA-N

>  <HIPPO ID>  (192) 
127341

$$$$
ZGXRCNLBHFHFTG-QMMMGPOBSA-N
     RDKit          3D

 15 15  0  0  0  0  0  0  0  0999 V2000
    5.2402   10.6407   27.3620 C   0  0  0  0  0  0  0  0  0  0  0  0
    5.5407   12.0652   26.9219 C   0  0  2  0  0  0  0  0  0  0  0  0
    4.5311   12.4839   26.0041 O   0  0  0  0  0  0  0  0  0  0  0  0
    6.9290   12.2450   26.2943 C   0  0  0  0  0  0  0  0  0  0  0  0
    7.3108   11.0675   25.5914 O   0  0  0  0  0  0  0  0  0  0  0  0
    8.4656   11.1063   24.8691 C   0  0  0  0  0  0  0  0  0  0  0  0
    8.8125    9.8883   24.2912 C   0  0  0  0  0  0  0  0  0  0  0  0
    9.9050    9.7824   23.4444 C   0  0  0  0  0  0  0  0  0  0  0  0
   10.6596   10.9162   23.1476 C   0  0  0  0  0  0  0  0  0  0  0  0
   11.7134   10.7809   22.1152 C   0  0  0  0  0  0  0  0  0  0  0  0
   11.8797    9.6687   21.6145 O   0  0  0  0  0  0  0  0  0  0  0  0
   12.4806   12.0257   21.7070 C   0  0  0  0  0  0  0  0  0  0  0  0
   13.7065   11.6009   20.4856 Cl  0  0  0  0  0  0  0  0  0  0  0  0
   10.3563   12.1317   23.7693 C   0  0  0  0  0  0  0  0  0  0  0  0
    9.2654   12.2213   24.6394 C   0  0  0  0  0  0  0  0  0  0  0  0
  2  1  1  6
  2  3  1  0
  2  4  1  0
  4  5  1  0
  5  6  1  0
  6  7  2  0
  7  8  1  0
  8  9  2  0
  9 10  1  0
 10 11  2  0
 10 12  1  0
 12 13  1  0
  9 14  1  0
 14 15  2  0
 15  6  1  0
M  END
>  <Crystalforms alias>  (193) 
nan

>  <original ID>  (193) 
ZGXRCNLBHFHFTG-QMMMGPOBSA-N

>  <alias>  (193) 
None

>  <distance_score>  (193) 
0.396972

>  <CanonSites upload name>  (193) 
nan

>  <CanonSites alias>  (193) 
nan

>  <ConformerSites alias>  (193) 
nan

>  <observation_longname>  (193) 
nan

>  <CrystalformSites alias>  (193) 
nan

>  <tags>  (193) 
[]

>  <ref_mols>  (193) 
A1775a

>  <ref_pdb>  (193) 
A1775a

>  <Quatassemblies upload name>  (193) 
nan

>  <inchikey>  (193) 
ZGXRCNLBHFHFTG-QMMMGPOBSA-N

>  <Experiment code>  (193) 
nan

>  <Quatassemblies alias>  (193) 
nan

>  <Crystalforms upload name>  (193) 
nan

>  <Centroid res>  (193) 
nan

>  <ConformerSites upload name>  (193) 
nan

>  <energy_score>  (193) 
-6.680856

>  <original SMILES>  (193) 
C[C@H](O)COc1ccc(C(=O)CCl)cc1

>  <exports>  (193) 
nan

>  <CrystalformSites upload name>  (193) 
nan

>  <name>  (193) 
ZGXRCNLBHFHFTG-QMMMGPOBSA-N

>  <HIPPO ID>  (193) 
127447

$$$$
ZGXRCNLBHFHFTG-MRVPVSSYSA-N
     RDKit          3D

 15 15  0  0  0  0  0  0  0  0999 V2000
    4.7541   11.4846   26.6573 C   0  0  0  0  0  0  0  0  0  0  0  0
    5.9289   12.1670   27.3127 C   0  0  1  0  0  0  0  0  0  0  0  0
    6.3610   11.3933   28.4302 O   0  0  0  0  0  0  0  0  0  0  0  0
    7.0868   12.3605   26.3331 C   0  0  0  0  0  0  0  0  0  0  0  0
    7.4653   11.1200   25.7419 O   0  0  0  0  0  0  0  0  0  0  0  0
    8.5444   11.1498   24.9075 C   0  0  0  0  0  0  0  0  0  0  0  0
    9.3255   12.2642   24.6125 C   0  0  0  0  0  0  0  0  0  0  0  0
   10.3845   12.1589   23.7107 C   0  0  0  0  0  0  0  0  0  0  0  0
   10.6728   10.9301   23.1110 C   0  0  0  0  0  0  0  0  0  0  0  0
   11.7272   10.7784   22.0831 C   0  0  0  0  0  0  0  0  0  0  0  0
   11.8862    9.6631   21.5884 O   0  0  0  0  0  0  0  0  0  0  0  0
   12.5063   12.0169   21.6763 C   0  0  0  0  0  0  0  0  0  0  0  0
   13.7363   11.5904   20.4646 Cl  0  0  0  0  0  0  0  0  0  0  0  0
    9.9152    9.8053   23.4369 C   0  0  0  0  0  0  0  0  0  0  0  0
    8.8525    9.9259   24.3208 C   0  0  0  0  0  0  0  0  0  0  0  0
  2  1  1  6
  2  3  1  0
  2  4  1  0
  4  5  1  0
  5  6  1  0
  6  7  2  0
  7  8  1  0
  8  9  2  0
  9 10  1  0
 10 11  2  0
 10 12  1  0
 12 13  1  0
  9 14  1  0
 14 15  2  0
 15  6  1  0
M  END
>  <Crystalforms alias>  (194) 
nan

>  <original ID>  (194) 
ZGXRCNLBHFHFTG-MRVPVSSYSA-N

>  <alias>  (194) 
None

>  <distance_score>  (194) 
0.444172

>  <CanonSites upload name>  (194) 
nan

>  <CanonSites alias>  (194) 
nan

>  <ConformerSites alias>  (194) 
nan

>  <observation_longname>  (194) 
nan

>  <CrystalformSites alias>  (194) 
nan

>  <tags>  (194) 
[]

>  <ref_mols>  (194) 
A1775a

>  <ref_pdb>  (194) 
A1775a

>  <Quatassemblies upload name>  (194) 
nan

>  <inchikey>  (194) 
ZGXRCNLBHFHFTG-MRVPVSSYSA-N

>  <Experiment code>  (194) 
nan

>  <Quatassemblies alias>  (194) 
nan

>  <Crystalforms upload name>  (194) 
nan

>  <Centroid res>  (194) 
nan

>  <ConformerSites upload name>  (194) 
nan

>  <energy_score>  (194) 
-13.814158

>  <original SMILES>  (194) 
C[C@@H](O)COc1ccc(C(=O)CCl)cc1

>  <exports>  (194) 
nan

>  <CrystalformSites upload name>  (194) 
nan

>  <name>  (194) 
ZGXRCNLBHFHFTG-MRVPVSSYSA-N

>  <HIPPO ID>  (194) 
127448

$$$$
XDSPFWJIHCHZHC-UHFFFAOYSA-N
     RDKit          3D

 16 16  0  0  0  0  0  0  0  0999 V2000
    5.8593   12.0651   28.1306 C   0  0  0  0  0  0  0  0  0  0  0  0
    5.4291   12.0103   26.6691 C   0  0  0  0  0  0  0  0  0  0  0  0
    4.3672   13.0637   26.3757 C   0  0  0  0  0  0  0  0  0  0  0  0
    4.8699   10.7836   26.4633 F   0  0  0  0  0  0  0  0  0  0  0  0
    6.6015   12.1708   25.6981 C   0  0  0  0  0  0  0  0  0  0  0  0
    7.5952   11.1763   25.9430 O   0  0  0  0  0  0  0  0  0  0  0  0
    8.5800   11.1683   24.9977 C   0  0  0  0  0  0  0  0  0  0  0  0
    8.8391    9.9522   24.3787 C   0  0  0  0  0  0  0  0  0  0  0  0
    9.8722    9.8381   23.4596 C   0  0  0  0  0  0  0  0  0  0  0  0
   10.6463   10.9567   23.1426 C   0  0  0  0  0  0  0  0  0  0  0  0
   11.6963   10.7960   22.1085 C   0  0  0  0  0  0  0  0  0  0  0  0
   11.8493    9.6777   21.6180 O   0  0  0  0  0  0  0  0  0  0  0  0
   12.4830   12.0281   21.6965 C   0  0  0  0  0  0  0  0  0  0  0  0
   13.7088   11.5905   20.4824 Cl  0  0  0  0  0  0  0  0  0  0  0  0
   10.3945   12.1793   23.7763 C   0  0  0  0  0  0  0  0  0  0  0  0
    9.3684   12.2794   24.7159 C   0  0  0  0  0  0  0  0  0  0  0  0
  1  2  1  0
  2  3  1  0
  2  4  1  0
  2  5  1  0
  5  6  1  0
  6  7  1  0
  7  8  2  0
  8  9  1  0
  9 10  2  0
 10 11  1  0
 11 12  2  0
 11 13  1  0
 13 14  1  0
 10 15  1  0
 15 16  2  0
 16  7  1  0
M  END
>  <Crystalforms alias>  (195) 
nan

>  <original ID>  (195) 
XDSPFWJIHCHZHC-UHFFFAOYSA-N

>  <alias>  (195) 
None

>  <distance_score>  (195) 
0.442845

>  <CanonSites upload name>  (195) 
nan

>  <CanonSites alias>  (195) 
nan

>  <ConformerSites alias>  (195) 
nan

>  <observation_longname>  (195) 
nan

>  <CrystalformSites alias>  (195) 
nan

>  <tags>  (195) 
[]

>  <ref_mols>  (195) 
A1775a

>  <ref_pdb>  (195) 
A1775a

>  <Quatassemblies upload name>  (195) 
nan

>  <inchikey>  (195) 
XDSPFWJIHCHZHC-UHFFFAOYSA-N

>  <Experiment code>  (195) 
nan

>  <Quatassemblies alias>  (195) 
nan

>  <Crystalforms upload name>  (195) 
nan

>  <Centroid res>  (195) 
nan

>  <ConformerSites upload name>  (195) 
nan

>  <energy_score>  (195) 
-16.227257

>  <original SMILES>  (195) 
CC(C)(F)COc1ccc(C(=O)CCl)cc1

>  <exports>  (195) 
nan

>  <CrystalformSites upload name>  (195) 
nan

>  <name>  (195) 
XDSPFWJIHCHZHC-UHFFFAOYSA-N

>  <HIPPO ID>  (195) 
127531

$$$$
ABDJOZLPECNQFQ-SNVBAGLBSA-N
     RDKit          3D

 16 16  0  0  0  0  0  0  0  0999 V2000
    4.3683   11.9313   28.9313 C   0  0  0  0  0  0  0  0  0  0  0  0
    5.6611   11.9572   28.1226 C   0  0  0  0  0  0  0  0  0  0  0  0
    5.4539   12.3293   26.6464 C   0  0  1  0  0  0  0  0  0  0  0  0
    4.8059   13.6407   26.5704 N   0  0  0  0  0  0  0  0  0  0  0  0
    6.7987   12.3945   25.8997 C   0  0  0  0  0  0  0  0  0  0  0  0
    7.3869   11.1085   25.7196 O   0  0  0  0  0  0  0  0  0  0  0  0
    8.4986   11.1146   24.9149 C   0  0  0  0  0  0  0  0  0  0  0  0
    9.3002   12.2248   24.6455 C   0  0  0  0  0  0  0  0  0  0  0  0
   10.3685   12.1256   23.7536 C   0  0  0  0  0  0  0  0  0  0  0  0
   10.6548   10.9040   23.1421 C   0  0  0  0  0  0  0  0  0  0  0  0
   11.7067   10.7641   22.1080 C   0  0  0  0  0  0  0  0  0  0  0  0
   11.8680    9.6516   21.6079 O   0  0  0  0  0  0  0  0  0  0  0  0
   12.4793   12.0091   21.7018 C   0  0  0  0  0  0  0  0  0  0  0  0
   13.7084   11.5904   20.4841 Cl  0  0  0  0  0  0  0  0  0  0  0  0
    9.8948    9.7774   23.4617 C   0  0  0  0  0  0  0  0  0  0  0  0
    8.8216    9.8917   24.3376 C   0  0  0  0  0  0  0  0  0  0  0  0
  1  2  1  0
  2  3  1  0
  3  4  1  1
  3  5  1  0
  5  6  1  0
  6  7  1  0
  7  8  2  0
  8  9  1  0
  9 10  2  0
 10 11  1  0
 11 12  2  0
 11 13  1  0
 13 14  1  0
 10 15  1  0
 15 16  2  0
 16  7  1  0
M  END
>  <Crystalforms alias>  (196) 
nan

>  <original ID>  (196) 
ABDJOZLPECNQFQ-SNVBAGLBSA-N

>  <alias>  (196) 
None

>  <distance_score>  (196) 
0.392488

>  <CanonSites upload name>  (196) 
nan

>  <CanonSites alias>  (196) 
nan

>  <ConformerSites alias>  (196) 
nan

>  <observation_longname>  (196) 
nan

>  <CrystalformSites alias>  (196) 
nan

>  <tags>  (196) 
[]

>  <ref_mols>  (196) 
A1775a

>  <ref_pdb>  (196) 
A1775a

>  <Quatassemblies upload name>  (196) 
nan

>  <inchikey>  (196) 
ABDJOZLPECNQFQ-SNVBAGLBSA-N

>  <Experiment code>  (196) 
nan

>  <Quatassemblies alias>  (196) 
nan

>  <Crystalforms upload name>  (196) 
nan

>  <Centroid res>  (196) 
nan

>  <ConformerSites upload name>  (196) 
nan

>  <energy_score>  (196) 
-17.337063

>  <original SMILES>  (196) 
CC[C@@H](N)COc1ccc(C(=O)CCl)cc1

>  <exports>  (196) 
nan

>  <CrystalformSites upload name>  (196) 
nan

>  <name>  (196) 
ABDJOZLPECNQFQ-SNVBAGLBSA-N

>  <HIPPO ID>  (196) 
127614

$$$$
ABDJOZLPECNQFQ-JTQLQIEISA-N
     RDKit          3D

 16 16  0  0  0  0  0  0  0  0999 V2000
    4.2821   12.3474   28.6294 C   0  0  0  0  0  0  0  0  0  0  0  0
    5.1753   13.3177   27.8703 C   0  0  0  0  0  0  0  0  0  0  0  0
    5.6836   12.8173   26.5106 C   0  0  2  0  0  0  0  0  0  0  0  0
    4.5600   12.3554   25.7196 N   0  0  0  0  0  0  0  0  0  0  0  0
    6.8498   11.8150   26.6227 C   0  0  0  0  0  0  0  0  0  0  0  0
    7.0729   11.1601   25.3744 O   0  0  0  0  0  0  0  0  0  0  0  0
    8.3317   11.1300   24.8583 C   0  0  0  0  0  0  0  0  0  0  0  0
    8.7337    9.9024   24.3421 C   0  0  0  0  0  0  0  0  0  0  0  0
    9.8654    9.7943   23.5468 C   0  0  0  0  0  0  0  0  0  0  0  0
   10.5992   10.9371   23.2313 C   0  0  0  0  0  0  0  0  0  0  0  0
   11.6553   10.7973   22.1956 C   0  0  0  0  0  0  0  0  0  0  0  0
   11.8247    9.6823   21.7006 O   0  0  0  0  0  0  0  0  0  0  0  0
   12.4192   12.0405   21.7735 C   0  0  0  0  0  0  0  0  0  0  0  0
   13.6358   11.6064   20.5397 Cl  0  0  0  0  0  0  0  0  0  0  0  0
   10.2472   12.1627   23.8119 C   0  0  0  0  0  0  0  0  0  0  0  0
    9.1132   12.2550   24.6315 C   0  0  0  0  0  0  0  0  0  0  0  0
  1  2  1  0
  2  3  1  0
  3  4  1  1
  3  5  1  0
  5  6  1  0
  6  7  1  0
  7  8  2  0
  8  9  1  0
  9 10  2  0
 10 11  1  0
 11 12  2  0
 11 13  1  0
 13 14  1  0
 10 15  1  0
 15 16  2  0
 16  7  1  0
M  END
>  <Crystalforms alias>  (197) 
nan

>  <original ID>  (197) 
ABDJOZLPECNQFQ-JTQLQIEISA-N

>  <alias>  (197) 
None

>  <distance_score>  (197) 
0.535529

>  <CanonSites upload name>  (197) 
nan

>  <CanonSites alias>  (197) 
nan

>  <ConformerSites alias>  (197) 
nan

>  <observation_longname>  (197) 
nan

>  <CrystalformSites alias>  (197) 
nan

>  <tags>  (197) 
[]

>  <ref_mols>  (197) 
A1775a

>  <ref_pdb>  (197) 
A1775a

>  <Quatassemblies upload name>  (197) 
nan

>  <inchikey>  (197) 
ABDJOZLPECNQFQ-JTQLQIEISA-N

>  <Experiment code>  (197) 
nan

>  <Quatassemblies alias>  (197) 
nan

>  <Crystalforms upload name>  (197) 
nan

>  <Centroid res>  (197) 
nan

>  <ConformerSites upload name>  (197) 
nan

>  <energy_score>  (197) 
-3.094942

>  <original SMILES>  (197) 
CC[C@H](N)COc1ccc(C(=O)CCl)cc1

>  <exports>  (197) 
nan

>  <CrystalformSites upload name>  (197) 
nan

>  <name>  (197) 
ABDJOZLPECNQFQ-JTQLQIEISA-N

>  <HIPPO ID>  (197) 
127615

$$$$
FKHRWYLSCCNYJX-UHFFFAOYSA-N
     RDKit          3D

 16 16  0  0  0  0  0  0  0  0999 V2000
   11.8950    9.6620   21.5897 O   0  0  0  0  0  0  0  0  0  0  0  0
   11.7271   10.7743   22.0884 C   0  0  0  0  0  0  0  0  0  0  0  0
   12.4977   12.0190   21.6861 C   0  0  0  0  0  0  0  0  0  0  0  0
   13.7285   11.5976   20.4714 Cl  0  0  0  0  0  0  0  0  0  0  0  0
   10.6686   10.9100   23.1146 C   0  0  0  0  0  0  0  0  0  0  0  0
    9.9297    9.7709   23.4325 C   0  0  0  0  0  0  0  0  0  0  0  0
    8.8483    9.8721   24.2943 C   0  0  0  0  0  0  0  0  0  0  0  0
    8.4975   11.0919   24.8641 C   0  0  0  0  0  0  0  0  0  0  0  0
    7.3831   11.0422   25.6491 O   0  0  0  0  0  0  0  0  0  0  0  0
    6.8745   12.2895   26.1138 C   0  0  0  0  0  0  0  0  0  0  0  0
    5.5995   12.0998   26.9099 C   0  0  0  0  0  0  0  0  0  0  0  0
    4.5711   11.7353   26.1258 F   0  0  0  0  0  0  0  0  0  0  0  0
    5.7515   11.1734   27.8792 F   0  0  0  0  0  0  0  0  0  0  0  0
    5.2656   13.2650   27.5137 F   0  0  0  0  0  0  0  0  0  0  0  0
    9.2706   12.2185   24.5953 C   0  0  0  0  0  0  0  0  0  0  0  0
   10.3508   12.1319   23.7141 C   0  0  0  0  0  0  0  0  0  0  0  0
  1  2  2  0
  2  3  1  0
  3  4  1  0
  2  5  1  0
  5  6  2  0
  6  7  1  0
  7  8  2  0
  8  9  1  0
  9 10  1  0
 10 11  1  0
 11 12  1  0
 11 13  1  0
 11 14  1  0
  8 15  1  0
 15 16  2  0
 16  5  1  0
M  END
>  <Crystalforms alias>  (198) 
nan

>  <original ID>  (198) 
FKHRWYLSCCNYJX-UHFFFAOYSA-N

>  <alias>  (198) 
None

>  <distance_score>  (198) 
0.380905

>  <CanonSites upload name>  (198) 
nan

>  <CanonSites alias>  (198) 
nan

>  <ConformerSites alias>  (198) 
nan

>  <observation_longname>  (198) 
nan

>  <CrystalformSites alias>  (198) 
nan

>  <tags>  (198) 
[]

>  <ref_mols>  (198) 
A1775a

>  <ref_pdb>  (198) 
A1775a

>  <Quatassemblies upload name>  (198) 
nan

>  <inchikey>  (198) 
FKHRWYLSCCNYJX-UHFFFAOYSA-N

>  <Experiment code>  (198) 
nan

>  <Quatassemblies alias>  (198) 
nan

>  <Crystalforms upload name>  (198) 
nan

>  <Centroid res>  (198) 
nan

>  <ConformerSites upload name>  (198) 
nan

>  <energy_score>  (198) 
-60.618868

>  <original SMILES>  (198) 
O=C(CCl)c1ccc(OCC(F)(F)F)cc1

>  <exports>  (198) 
nan

>  <CrystalformSites upload name>  (198) 
nan

>  <name>  (198) 
FKHRWYLSCCNYJX-UHFFFAOYSA-N

>  <HIPPO ID>  (198) 
127758

$$$$
WKGKDWBPQOVABS-ZETCQYMHSA-N
     RDKit          3D

 16 16  0  0  0  0  0  0  0  0999 V2000
    5.0394   12.9159   27.7447 C   0  0  0  0  0  0  0  0  0  0  0  0
    5.5142   11.8002   26.8319 C   0  0  2  0  0  0  0  0  0  0  0  0
    5.6141   10.6046   27.6050 O   0  0  0  0  0  0  0  0  0  0  0  0
    6.8677   12.1219   26.1994 C   0  0  0  0  0  0  0  0  0  0  0  0
    7.3162   10.9403   25.5395 O   0  0  0  0  0  0  0  0  0  0  0  0
    8.4882   11.0062   24.8513 C   0  0  0  0  0  0  0  0  0  0  0  0
    8.8281    9.8244   24.2018 C   0  0  0  0  0  0  0  0  0  0  0  0
    9.9290    9.7614   23.3621 C   0  0  0  0  0  0  0  0  0  0  0  0
   10.7342   10.8870   23.1786 C   0  0  0  0  0  0  0  0  0  0  0  0
   11.7616   10.7843   22.1134 C   0  0  0  0  0  0  0  0  0  0  0  0
   11.9263    9.6763   21.5995 O   0  0  0  0  0  0  0  0  0  0  0  0
   12.5041   12.0331   21.6728 C   0  0  0  0  0  0  0  0  0  0  0  0
   13.7152   11.6041   20.4360 Cl  0  0  0  0  0  0  0  0  0  0  0  0
   10.4697   12.0267   23.9413 C   0  0  0  0  0  0  0  0  0  0  0  0
   11.3011   13.1074   23.9988 O   0  0  0  0  0  0  0  0  0  0  0  0
    9.3319   12.1040   24.7471 C   0  0  0  0  0  0  0  0  0  0  0  0
  2  1  1  1
  2  3  1  0
  2  4  1  0
  4  5  1  0
  5  6  1  0
  6  7  2  0
  7  8  1  0
  8  9  2  0
  9 10  1  0
 10 11  2  0
 10 12  1  0
 12 13  1  0
  9 14  1  0
 14 15  1  0
 14 16  2  0
 16  6  1  0
M  END
>  <Crystalforms alias>  (199) 
nan

>  <original ID>  (199) 
WKGKDWBPQOVABS-ZETCQYMHSA-N

>  <alias>  (199) 
None

>  <distance_score>  (199) 
0.374109

>  <CanonSites upload name>  (199) 
nan

>  <CanonSites alias>  (199) 
nan

>  <ConformerSites alias>  (199) 
nan

>  <observation_longname>  (199) 
nan

>  <CrystalformSites alias>  (199) 
nan

>  <tags>  (199) 
[]

>  <ref_mols>  (199) 
A1775a

>  <ref_pdb>  (199) 
A1775a

>  <Quatassemblies upload name>  (199) 
nan

>  <inchikey>  (199) 
WKGKDWBPQOVABS-ZETCQYMHSA-N

>  <Experiment code>  (199) 
nan

>  <Quatassemblies alias>  (199) 
nan

>  <Crystalforms upload name>  (199) 
nan

>  <Centroid res>  (199) 
nan

>  <ConformerSites upload name>  (199) 
nan

>  <energy_score>  (199) 
-54.080343

>  <original SMILES>  (199) 
C[C@H](O)COc1ccc(C(=O)CCl)c(O)c1

>  <exports>  (199) 
nan

>  <CrystalformSites upload name>  (199) 
nan

>  <name>  (199) 
WKGKDWBPQOVABS-ZETCQYMHSA-N

>  <HIPPO ID>  (199) 
127783

$$$$
WKGKDWBPQOVABS-ZETCQYMHSA-N
     RDKit          3D

 16 16  0  0  0  0  0  0  0  0999 V2000
    5.8206   11.6964   28.2102 C   0  0  0  0  0  0  0  0  0  0  0  0
    5.4374   11.6370   26.7420 C   0  0  2  0  0  0  0  0  0  0  0  0
    5.0425   10.2914   26.4688 O   0  0  0  0  0  0  0  0  0  0  0  0
    6.5785   12.0417   25.8036 C   0  0  0  0  0  0  0  0  0  0  0  0
    7.6386   11.1033   25.9898 O   0  0  0  0  0  0  0  0  0  0  0  0
    8.5671   11.1120   24.9958 C   0  0  0  0  0  0  0  0  0  0  0  0
    9.3775   12.2049   24.7320 C   0  0  0  0  0  0  0  0  0  0  0  0
   10.4008   12.0840   23.7887 C   0  0  0  0  0  0  0  0  0  0  0  0
   10.6162   10.8703   23.1089 C   0  0  0  0  0  0  0  0  0  0  0  0
   11.6945   10.7517   22.0858 C   0  0  0  0  0  0  0  0  0  0  0  0
   11.9052    9.6630   21.5558 O   0  0  0  0  0  0  0  0  0  0  0  0
   12.4648   12.0092   21.7085 C   0  0  0  0  0  0  0  0  0  0  0  0
   13.7011   11.6122   20.4842 Cl  0  0  0  0  0  0  0  0  0  0  0  0
    9.7715    9.7880   23.3828 C   0  0  0  0  0  0  0  0  0  0  0  0
    9.8682    8.5891   22.7388 O   0  0  0  0  0  0  0  0  0  0  0  0
    8.7701    9.9099   24.3331 C   0  0  0  0  0  0  0  0  0  0  0  0
  2  1  1  1
  2  3  1  0
  2  4  1  0
  4  5  1  0
  5  6  1  0
  6  7  2  0
  7  8  1  0
  8  9  2  0
  9 10  1  0
 10 11  2  0
 10 12  1  0
 12 13  1  0
  9 14  1  0
 14 15  1  0
 14 16  2  0
 16  6  1  0
M  END
>  <Crystalforms alias>  (200) 
nan

>  <original ID>  (200) 
WKGKDWBPQOVABS-ZETCQYMHSA-N

>  <alias>  (200) 
None

>  <distance_score>  (200) 
0.44164

>  <CanonSites upload name>  (200) 
nan

>  <CanonSites alias>  (200) 
nan

>  <ConformerSites alias>  (200) 
nan

>  <observation_longname>  (200) 
nan

>  <CrystalformSites alias>  (200) 
nan

>  <tags>  (200) 
[]

>  <ref_mols>  (200) 
A1775a

>  <ref_pdb>  (200) 
A1775a

>  <Quatassemblies upload name>  (200) 
nan

>  <inchikey>  (200) 
WKGKDWBPQOVABS-ZETCQYMHSA-N

>  <Experiment code>  (200) 
nan

>  <Quatassemblies alias>  (200) 
nan

>  <Crystalforms upload name>  (200) 
nan

>  <Centroid res>  (200) 
nan

>  <ConformerSites upload name>  (200) 
nan

>  <energy_score>  (200) 
-8.561689

>  <original SMILES>  (200) 
C[C@H](O)COc1ccc(C(=O)CCl)c(O)c1

>  <exports>  (200) 
nan

>  <CrystalformSites upload name>  (200) 
nan

>  <name>  (200) 
WKGKDWBPQOVABS-ZETCQYMHSA-N

>  <HIPPO ID>  (200) 
127784

$$$$
HCIYNZHIDQABNY-ZETCQYMHSA-N
     RDKit          3D

 16 16  0  0  0  0  0  0  0  0999 V2000
   10.9495    9.2235   21.9874 C   0  0  0  0  0  0  0  0  0  0  0  0
   10.1450    8.1715   22.6852 C   0  0  2  0  0  0  0  0  0  0  0  0
    9.3118    7.4546   21.8075 O   0  0  0  0  0  0  0  0  0  0  0  0
    9.3270    8.7576   23.7935 C   0  0  0  0  0  0  0  0  0  0  0  0
    9.9975    9.8290   24.4299 O   0  0  0  0  0  0  0  0  0  0  0  0
    9.3288   11.0031   24.2414 C   0  0  0  0  0  0  0  0  0  0  0  0
    8.0862   11.1359   24.8317 C   0  0  0  0  0  0  0  0  0  0  0  0
    7.3199   12.2254   24.5025 C   0  0  0  0  0  0  0  0  0  0  0  0
    6.0881   12.2773   25.0654 O   0  0  0  0  0  0  0  0  0  0  0  0
    7.7758   13.1749   23.5915 C   0  0  0  0  0  0  0  0  0  0  0  0
    9.0880   13.1262   23.1226 C   0  0  0  0  0  0  0  0  0  0  0  0
    9.8812   12.0429   23.4681 C   0  0  0  0  0  0  0  0  0  0  0  0
   11.3181   12.0092   23.1724 C   0  0  0  0  0  0  0  0  0  0  0  0
   11.9594   11.4217   24.0301 O   0  0  0  0  0  0  0  0  0  0  0  0
   11.9695   12.7716   22.0620 C   0  0  0  0  0  0  0  0  0  0  0  0
   13.0226   11.7395   21.0553 Cl  0  0  0  0  0  0  0  0  0  0  0  0
  2  1  1  6
  2  3  1  0
  2  4  1  0
  4  5  1  0
  5  6  1  0
  6  7  2  0
  7  8  1  0
  8  9  1  0
  8 10  2  0
 10 11  1  0
 11 12  2  0
 12 13  1  0
 13 14  2  0
 13 15  1  0
 15 16  1  0
 12  6  1  0
M  END
>  <Crystalforms alias>  (201) 
nan

>  <original ID>  (201) 
HCIYNZHIDQABNY-ZETCQYMHSA-N

>  <alias>  (201) 
None

>  <distance_score>  (201) 
2.030462

>  <CanonSites upload name>  (201) 
nan

>  <CanonSites alias>  (201) 
nan

>  <ConformerSites alias>  (201) 
nan

>  <observation_longname>  (201) 
nan

>  <CrystalformSites alias>  (201) 
nan

>  <tags>  (201) 
[]

>  <ref_mols>  (201) 
A1775a

>  <ref_pdb>  (201) 
A1775a

>  <Quatassemblies upload name>  (201) 
nan

>  <inchikey>  (201) 
HCIYNZHIDQABNY-ZETCQYMHSA-N

>  <Experiment code>  (201) 
nan

>  <Quatassemblies alias>  (201) 
nan

>  <Crystalforms upload name>  (201) 
nan

>  <Centroid res>  (201) 
nan

>  <ConformerSites upload name>  (201) 
nan

>  <energy_score>  (201) 
2.891406

>  <original SMILES>  (201) 
C[C@H](O)COc1cc(O)ccc1C(=O)CCl

>  <exports>  (201) 
nan

>  <CrystalformSites upload name>  (201) 
nan

>  <name>  (201) 
HCIYNZHIDQABNY-ZETCQYMHSA-N

>  <HIPPO ID>  (201) 
127785

$$$$
TXLKMBLSEYKONP-MRVPVSSYSA-N
     RDKit          3D

 17 17  0  0  0  0  0  0  0  0999 V2000
    5.9587   13.2153   28.8629 C   0  0  0  0  0  0  0  0  0  0  0  0
    5.5180   11.9677   28.1157 C   0  0  0  0  0  0  0  0  0  0  0  0
    5.3706   12.1174   26.5944 C   0  0  1  0  0  0  0  0  0  0  0  0
    4.4156   13.1692   26.2679 N   0  0  0  0  0  0  0  0  0  0  0  0
    6.7048   12.3205   25.8521 C   0  0  0  0  0  0  0  0  0  0  0  0
    7.4577   11.1062   25.8509 O   0  0  0  0  0  0  0  0  0  0  0  0
    8.5084   11.1035   24.9755 C   0  0  0  0  0  0  0  0  0  0  0  0
    9.3435   12.1859   24.7262 C   0  0  0  0  0  0  0  0  0  0  0  0
   10.3932   12.0588   23.8112 C   0  0  0  0  0  0  0  0  0  0  0  0
   10.6158   10.8485   23.1337 C   0  0  0  0  0  0  0  0  0  0  0  0
   11.6882   10.7398   22.1021 C   0  0  0  0  0  0  0  0  0  0  0  0
   11.9002    9.6559   21.5629 O   0  0  0  0  0  0  0  0  0  0  0  0
   12.4502   12.0034   21.7242 C   0  0  0  0  0  0  0  0  0  0  0  0
   13.6866   11.6138   20.4954 Cl  0  0  0  0  0  0  0  0  0  0  0  0
    9.7699    9.7677   23.4049 C   0  0  0  0  0  0  0  0  0  0  0  0
    9.8726    8.5725   22.7554 O   0  0  0  0  0  0  0  0  0  0  0  0
    8.7474    9.8944   24.3359 C   0  0  0  0  0  0  0  0  0  0  0  0
  1  2  1  0
  2  3  1  0
  3  4  1  1
  3  5  1  0
  5  6  1  0
  6  7  1  0
  7  8  2  0
  8  9  1  0
  9 10  2  0
 10 11  1  0
 11 12  2  0
 11 13  1  0
 13 14  1  0
 10 15  1  0
 15 16  1  0
 15 17  2  0
 17  7  1  0
M  END
>  <Crystalforms alias>  (202) 
nan

>  <original ID>  (202) 
TXLKMBLSEYKONP-MRVPVSSYSA-N

>  <alias>  (202) 
None

>  <distance_score>  (202) 
0.397622

>  <CanonSites upload name>  (202) 
nan

>  <CanonSites alias>  (202) 
nan

>  <ConformerSites alias>  (202) 
nan

>  <observation_longname>  (202) 
nan

>  <CrystalformSites alias>  (202) 
nan

>  <tags>  (202) 
[]

>  <ref_mols>  (202) 
A1775a

>  <ref_pdb>  (202) 
A1775a

>  <Quatassemblies upload name>  (202) 
nan

>  <inchikey>  (202) 
TXLKMBLSEYKONP-MRVPVSSYSA-N

>  <Experiment code>  (202) 
nan

>  <Quatassemblies alias>  (202) 
nan

>  <Crystalforms upload name>  (202) 
nan

>  <Centroid res>  (202) 
nan

>  <ConformerSites upload name>  (202) 
nan

>  <energy_score>  (202) 
-28.999538

>  <original SMILES>  (202) 
CC[C@@H](N)COc1ccc(C(=O)CCl)c(O)c1

>  <exports>  (202) 
nan

>  <CrystalformSites upload name>  (202) 
nan

>  <name>  (202) 
TXLKMBLSEYKONP-MRVPVSSYSA-N

>  <HIPPO ID>  (202) 
128262

$$$$
TXLKMBLSEYKONP-QMMMGPOBSA-N
     RDKit          3D

 17 17  0  0  0  0  0  0  0  0999 V2000
    4.0450   10.3687   28.1459 C   0  0  0  0  0  0  0  0  0  0  0  0
    5.2970   10.5410   27.2997 C   0  0  0  0  0  0  0  0  0  0  0  0
    5.5732   12.0026   26.9150 C   0  0  2  0  0  0  0  0  0  0  0  0
    4.5359   12.4703   25.9928 N   0  0  0  0  0  0  0  0  0  0  0  0
    6.9756   12.1881   26.3006 C   0  0  0  0  0  0  0  0  0  0  0  0
    7.3528   11.0285   25.5694 O   0  0  0  0  0  0  0  0  0  0  0  0
    8.5215   11.0649   24.8751 C   0  0  0  0  0  0  0  0  0  0  0  0
    8.8284    9.8774   24.2189 C   0  0  0  0  0  0  0  0  0  0  0  0
    9.9209    9.7934   23.3692 C   0  0  0  0  0  0  0  0  0  0  0  0
   10.7470   10.9033   23.1815 C   0  0  0  0  0  0  0  0  0  0  0  0
   11.7666   10.7874   22.1106 C   0  0  0  0  0  0  0  0  0  0  0  0
   11.9210    9.6765   21.6000 O   0  0  0  0  0  0  0  0  0  0  0  0
   12.5141   12.0312   21.6630 C   0  0  0  0  0  0  0  0  0  0  0  0
   13.7227   11.5974   20.4276 Cl  0  0  0  0  0  0  0  0  0  0  0  0
   10.5132   12.0464   23.9488 C   0  0  0  0  0  0  0  0  0  0  0  0
   11.3648   13.1115   23.9983 O   0  0  0  0  0  0  0  0  0  0  0  0
    9.3877   12.1443   24.7669 C   0  0  0  0  0  0  0  0  0  0  0  0
  1  2  1  0
  2  3  1  0
  3  4  1  6
  3  5  1  0
  5  6  1  0
  6  7  1  0
  7  8  2  0
  8  9  1  0
  9 10  2  0
 10 11  1  0
 11 12  2  0
 11 13  1  0
 13 14  1  0
 10 15  1  0
 15 16  1  0
 15 17  2  0
 17  7  1  0
M  END
>  <Crystalforms alias>  (203) 
nan

>  <original ID>  (203) 
TXLKMBLSEYKONP-QMMMGPOBSA-N

>  <alias>  (203) 
None

>  <distance_score>  (203) 
0.37471

>  <CanonSites upload name>  (203) 
nan

>  <CanonSites alias>  (203) 
nan

>  <ConformerSites alias>  (203) 
nan

>  <observation_longname>  (203) 
nan

>  <CrystalformSites alias>  (203) 
nan

>  <tags>  (203) 
[]

>  <ref_mols>  (203) 
A1775a

>  <ref_pdb>  (203) 
A1775a

>  <Quatassemblies upload name>  (203) 
nan

>  <inchikey>  (203) 
TXLKMBLSEYKONP-QMMMGPOBSA-N

>  <Experiment code>  (203) 
nan

>  <Quatassemblies alias>  (203) 
nan

>  <Crystalforms upload name>  (203) 
nan

>  <Centroid res>  (203) 
nan

>  <ConformerSites upload name>  (203) 
nan

>  <energy_score>  (203) 
-24.437753

>  <original SMILES>  (203) 
CC[C@H](N)COc1ccc(C(=O)CCl)c(O)c1

>  <exports>  (203) 
nan

>  <CrystalformSites upload name>  (203) 
nan

>  <name>  (203) 
TXLKMBLSEYKONP-QMMMGPOBSA-N

>  <HIPPO ID>  (203) 
128263

$$$$
CWGZKENOMUEETB-QMMMGPOBSA-N
     RDKit          3D

 17 17  0  0  0  0  0  0  0  0999 V2000
   15.3726   15.0318   25.7885 C   0  0  0  0  0  0  0  0  0  0  0  0
   13.9748   14.4908   26.0685 C   0  0  0  0  0  0  0  0  0  0  0  0
   13.1995   14.1185   24.8029 C   0  0  2  0  0  0  0  0  0  0  0  0
   13.0213   15.2883   23.9601 N   0  0  0  0  0  0  0  0  0  0  0  0
   11.8311   13.5008   25.0848 C   0  0  0  0  0  0  0  0  0  0  0  0
   11.1925   13.1938   23.8283 O   0  0  0  0  0  0  0  0  0  0  0  0
   10.3795   12.1012   23.9312 C   0  0  0  0  0  0  0  0  0  0  0  0
    9.2630   12.1842   24.7730 C   0  0  0  0  0  0  0  0  0  0  0  0
    8.4563   11.0739   24.9448 C   0  0  0  0  0  0  0  0  0  0  0  0
    7.3479   11.1071   25.7330 O   0  0  0  0  0  0  0  0  0  0  0  0
    8.7667    9.8810   24.3145 C   0  0  0  0  0  0  0  0  0  0  0  0
    9.8437    9.8085   23.4394 C   0  0  0  0  0  0  0  0  0  0  0  0
   10.6393   10.9354   23.1998 C   0  0  0  0  0  0  0  0  0  0  0  0
   11.6866   10.7966   22.1495 C   0  0  0  0  0  0  0  0  0  0  0  0
   11.8415    9.6763   21.6564 O   0  0  0  0  0  0  0  0  0  0  0  0
   12.4611   12.0239   21.6989 C   0  0  0  0  0  0  0  0  0  0  0  0
   13.6747   11.5766   20.4690 Cl  0  0  0  0  0  0  0  0  0  0  0  0
  1  2  1  0
  2  3  1  0
  3  4  1  6
  3  5  1  0
  5  6  1  0
  6  7  1  0
  7  8  2  0
  8  9  1  0
  9 10  1  0
  9 11  2  0
 11 12  1  0
 12 13  2  0
 13 14  1  0
 14 15  2  0
 14 16  1  0
 16 17  1  0
 13  7  1  0
M  END
>  <Crystalforms alias>  (204) 
nan

>  <original ID>  (204) 
CWGZKENOMUEETB-QMMMGPOBSA-N

>  <alias>  (204) 
None

>  <distance_score>  (204) 
0.417551

>  <CanonSites upload name>  (204) 
nan

>  <CanonSites alias>  (204) 
nan

>  <ConformerSites alias>  (204) 
nan

>  <observation_longname>  (204) 
nan

>  <CrystalformSites alias>  (204) 
nan

>  <tags>  (204) 
[]

>  <ref_mols>  (204) 
A1775a

>  <ref_pdb>  (204) 
A1775a

>  <Quatassemblies upload name>  (204) 
nan

>  <inchikey>  (204) 
CWGZKENOMUEETB-QMMMGPOBSA-N

>  <Experiment code>  (204) 
nan

>  <Quatassemblies alias>  (204) 
nan

>  <Crystalforms upload name>  (204) 
nan

>  <Centroid res>  (204) 
nan

>  <ConformerSites upload name>  (204) 
nan

>  <energy_score>  (204) 
-69.71361

>  <original SMILES>  (204) 
CC[C@H](N)COc1cc(O)ccc1C(=O)CCl

>  <exports>  (204) 
nan

>  <CrystalformSites upload name>  (204) 
nan

>  <name>  (204) 
CWGZKENOMUEETB-QMMMGPOBSA-N

>  <HIPPO ID>  (204) 
128300

$$$$
WFYDSQYSFHJMGU-UHFFFAOYSA-N
     RDKit          3D

 17 17  0  0  0  0  0  0  0  0999 V2000
   11.5061    8.1354   22.9879 C   0  0  0  0  0  0  0  0  0  0  0  0
   10.1162    8.5463   22.6213 C   0  0  0  0  0  0  0  0  0  0  0  0
    9.3610    7.5409   21.8900 C   0  0  0  0  0  0  0  0  0  0  0  0
   10.1228    9.5659   21.7494 F   0  0  0  0  0  0  0  0  0  0  0  0
    9.3790    8.9118   23.8636 C   0  0  0  0  0  0  0  0  0  0  0  0
   10.0866    9.9336   24.5548 O   0  0  0  0  0  0  0  0  0  0  0  0
    9.5682   11.1412   24.2065 C   0  0  0  0  0  0  0  0  0  0  0  0
    8.3649   11.4347   24.8317 C   0  0  0  0  0  0  0  0  0  0  0  0
    7.6877   12.5454   24.4219 C   0  0  0  0  0  0  0  0  0  0  0  0
    6.4849   12.8409   24.9688 O   0  0  0  0  0  0  0  0  0  0  0  0
    8.2198   13.3866   23.4475 C   0  0  0  0  0  0  0  0  0  0  0  0
    9.4838   13.1534   22.9088 C   0  0  0  0  0  0  0  0  0  0  0  0
   10.1743   12.0079   23.2732 C   0  0  0  0  0  0  0  0  0  0  0  0
   11.4524   11.6503   22.6198 C   0  0  0  0  0  0  0  0  0  0  0  0
   11.8797   10.5283   22.8102 O   0  0  0  0  0  0  0  0  0  0  0  0
   12.2717   12.6148   21.8410 C   0  0  0  0  0  0  0  0  0  0  0  0
   13.3612   11.7022   20.7129 Cl  0  0  0  0  0  0  0  0  0  0  0  0
  1  2  1  0
  2  3  1  0
  2  4  1  0
  2  5  1  0
  5  6  1  0
  6  7  1  0
  7  8  2  0
  8  9  1  0
  9 10  1  0
  9 11  2  0
 11 12  1  0
 12 13  2  0
 13 14  1  0
 14 15  2  0
 14 16  1  0
 16 17  1  0
 13  7  1  0
M  END
>  <Crystalforms alias>  (205) 
nan

>  <original ID>  (205) 
WFYDSQYSFHJMGU-UHFFFAOYSA-N

>  <alias>  (205) 
None

>  <distance_score>  (205) 
1.752894

>  <CanonSites upload name>  (205) 
nan

>  <CanonSites alias>  (205) 
nan

>  <ConformerSites alias>  (205) 
nan

>  <observation_longname>  (205) 
nan

>  <CrystalformSites alias>  (205) 
nan

>  <tags>  (205) 
[]

>  <ref_mols>  (205) 
A1775a

>  <ref_pdb>  (205) 
A1775a

>  <Quatassemblies upload name>  (205) 
nan

>  <inchikey>  (205) 
WFYDSQYSFHJMGU-UHFFFAOYSA-N

>  <Experiment code>  (205) 
nan

>  <Quatassemblies alias>  (205) 
nan

>  <Crystalforms upload name>  (205) 
nan

>  <Centroid res>  (205) 
nan

>  <ConformerSites upload name>  (205) 
nan

>  <energy_score>  (205) 
-31.70614

>  <original SMILES>  (205) 
CC(C)(F)COc1cc(O)ccc1C(=O)CCl

>  <exports>  (205) 
nan

>  <CrystalformSites upload name>  (205) 
nan

>  <name>  (205) 
WFYDSQYSFHJMGU-UHFFFAOYSA-N

>  <HIPPO ID>  (205) 
128644

$$$$
UVUJXOHSUQSBBV-UHFFFAOYSA-N
     RDKit          3D

 17 17  0  0  0  0  0  0  0  0999 V2000
    4.8918   13.1765   27.4985 C   0  0  0  0  0  0  0  0  0  0  0  0
    5.3680   12.0661   26.5777 C   0  0  0  0  0  0  0  0  0  0  0  0
    5.1047   10.6939   27.1728 C   0  0  0  0  0  0  0  0  0  0  0  0
    4.6028   12.1777   25.4545 F   0  0  0  0  0  0  0  0  0  0  0  0
    6.8252   12.2722   26.1482 C   0  0  0  0  0  0  0  0  0  0  0  0
    7.3850   11.0486   25.6751 O   0  0  0  0  0  0  0  0  0  0  0  0
    8.5050   11.1145   24.9035 C   0  0  0  0  0  0  0  0  0  0  0  0
    8.8469    9.9116   24.2951 C   0  0  0  0  0  0  0  0  0  0  0  0
    9.9318    9.8307   23.4353 C   0  0  0  0  0  0  0  0  0  0  0  0
   10.6927   10.9698   23.1561 C   0  0  0  0  0  0  0  0  0  0  0  0
   11.7386   10.8198   22.1125 C   0  0  0  0  0  0  0  0  0  0  0  0
   11.8857    9.7000   21.6168 O   0  0  0  0  0  0  0  0  0  0  0  0
   12.5237   12.0422   21.6764 C   0  0  0  0  0  0  0  0  0  0  0  0
   13.7355   11.5845   20.4505 Cl  0  0  0  0  0  0  0  0  0  0  0  0
   10.3811   12.1669   23.8103 C   0  0  0  0  0  0  0  0  0  0  0  0
   11.1242   13.2969   23.6185 O   0  0  0  0  0  0  0  0  0  0  0  0
    9.2972   12.2375   24.6905 C   0  0  0  0  0  0  0  0  0  0  0  0
  1  2  1  0
  2  3  1  0
  2  4  1  0
  2  5  1  0
  5  6  1  0
  6  7  1  0
  7  8  2  0
  8  9  1  0
  9 10  2  0
 10 11  1  0
 11 12  2  0
 11 13  1  0
 13 14  1  0
 10 15  1  0
 15 16  1  0
 15 17  2  0
 17  7  1  0
M  END
>  <Crystalforms alias>  (206) 
nan

>  <original ID>  (206) 
UVUJXOHSUQSBBV-UHFFFAOYSA-N

>  <alias>  (206) 
None

>  <distance_score>  (206) 
0.397973

>  <CanonSites upload name>  (206) 
nan

>  <CanonSites alias>  (206) 
nan

>  <ConformerSites alias>  (206) 
nan

>  <observation_longname>  (206) 
nan

>  <CrystalformSites alias>  (206) 
nan

>  <tags>  (206) 
[]

>  <ref_mols>  (206) 
A1775a

>  <ref_pdb>  (206) 
A1775a

>  <Quatassemblies upload name>  (206) 
nan

>  <inchikey>  (206) 
UVUJXOHSUQSBBV-UHFFFAOYSA-N

>  <Experiment code>  (206) 
nan

>  <Quatassemblies alias>  (206) 
nan

>  <Crystalforms upload name>  (206) 
nan

>  <Centroid res>  (206) 
nan

>  <ConformerSites upload name>  (206) 
nan

>  <energy_score>  (206) 
-34.229081

>  <original SMILES>  (206) 
CC(C)(F)COc1ccc(C(=O)CCl)c(O)c1

>  <exports>  (206) 
nan

>  <CrystalformSites upload name>  (206) 
nan

>  <name>  (206) 
UVUJXOHSUQSBBV-UHFFFAOYSA-N

>  <HIPPO ID>  (206) 
128645

$$$$
XRFYLMAKDIRTQU-UHFFFAOYSA-N
     RDKit          3D

 17 17  0  0  0  0  0  0  0  0999 V2000
   11.8172    9.9867   22.0207 O   0  0  0  0  0  0  0  0  0  0  0  0
   11.7111   11.1714   22.3183 C   0  0  0  0  0  0  0  0  0  0  0  0
   12.5562   12.2382   21.6862 C   0  0  0  0  0  0  0  0  0  0  0  0
   13.6909   11.5686   20.4930 Cl  0  0  0  0  0  0  0  0  0  0  0  0
   10.7364   11.6245   23.3604 C   0  0  0  0  0  0  0  0  0  0  0  0
   10.5617   12.9725   23.6809 C   0  0  0  0  0  0  0  0  0  0  0  0
    9.6163   13.3557   24.6370 C   0  0  0  0  0  0  0  0  0  0  0  0
    8.7873   12.4028   25.2097 C   0  0  0  0  0  0  0  0  0  0  0  0
    7.8431   12.6913   26.1366 O   0  0  0  0  0  0  0  0  0  0  0  0
    8.9353   11.0804   24.9067 C   0  0  0  0  0  0  0  0  0  0  0  0
    9.9477   10.7010   24.0377 C   0  0  0  0  0  0  0  0  0  0  0  0
   10.2209    9.3825   23.9697 O   0  0  0  0  0  0  0  0  0  0  0  0
    9.1119    8.6833   23.4254 C   0  0  0  0  0  0  0  0  0  0  0  0
    9.6528    7.8986   22.2989 C   0  0  0  0  0  0  0  0  0  0  0  0
   10.6740    7.2265   22.8788 F   0  0  0  0  0  0  0  0  0  0  0  0
    8.8469    6.9948   21.7205 F   0  0  0  0  0  0  0  0  0  0  0  0
   10.0748    8.6690   21.3010 F   0  0  0  0  0  0  0  0  0  0  0  0
  1  2  2  0
  2  3  1  0
  3  4  1  0
  2  5  1  0
  5  6  2  0
  6  7  1  0
  7  8  2  0
  8  9  1  0
  8 10  1  0
 10 11  2  0
 11 12  1  0
 12 13  1  0
 13 14  1  0
 14 15  1  0
 14 16  1  0
 14 17  1  0
 11  5  1  0
M  END
>  <Crystalforms alias>  (207) 
nan

>  <original ID>  (207) 
XRFYLMAKDIRTQU-UHFFFAOYSA-N

>  <alias>  (207) 
None

>  <distance_score>  (207) 
1.280003

>  <CanonSites upload name>  (207) 
nan

>  <CanonSites alias>  (207) 
nan

>  <ConformerSites alias>  (207) 
nan

>  <observation_longname>  (207) 
nan

>  <CrystalformSites alias>  (207) 
nan

>  <tags>  (207) 
[]

>  <ref_mols>  (207) 
A1775a

>  <ref_pdb>  (207) 
A1775a

>  <Quatassemblies upload name>  (207) 
nan

>  <inchikey>  (207) 
XRFYLMAKDIRTQU-UHFFFAOYSA-N

>  <Experiment code>  (207) 
nan

>  <Quatassemblies alias>  (207) 
nan

>  <Crystalforms upload name>  (207) 
nan

>  <Centroid res>  (207) 
nan

>  <ConformerSites upload name>  (207) 
nan

>  <energy_score>  (207) 
0.011971

>  <original SMILES>  (207) 
O=C(CCl)c1ccc(O)cc1OCC(F)(F)F

>  <exports>  (207) 
nan

>  <CrystalformSites upload name>  (207) 
nan

>  <name>  (207) 
XRFYLMAKDIRTQU-UHFFFAOYSA-N

>  <HIPPO ID>  (207) 
128845

$$$$
DVBYMPFGSSMXKN-UHFFFAOYSA-N
     RDKit          3D

 17 17  0  0  0  0  0  0  0  0999 V2000
   11.9032    9.6942   21.5894 O   0  0  0  0  0  0  0  0  0  0  0  0
   11.7583   10.8108   22.0923 C   0  0  0  0  0  0  0  0  0  0  0  0
   12.5400   12.0362   21.6599 C   0  0  0  0  0  0  0  0  0  0  0  0
   13.7521   11.5855   20.4340 Cl  0  0  0  0  0  0  0  0  0  0  0  0
   10.7166   10.9532   23.1397 C   0  0  0  0  0  0  0  0  0  0  0  0
    9.9510    9.8139   23.4073 C   0  0  0  0  0  0  0  0  0  0  0  0
    8.8702    9.8877   24.2720 C   0  0  0  0  0  0  0  0  0  0  0  0
    8.5385   11.0851   24.8943 C   0  0  0  0  0  0  0  0  0  0  0  0
    7.4180   11.0216   25.6678 O   0  0  0  0  0  0  0  0  0  0  0  0
    6.8739   12.2622   26.1109 C   0  0  0  0  0  0  0  0  0  0  0  0
    5.4542   12.0844   26.6002 C   0  0  0  0  0  0  0  0  0  0  0  0
    5.3336   11.0448   27.4466 F   0  0  0  0  0  0  0  0  0  0  0  0
    4.6153   11.8906   25.5740 F   0  0  0  0  0  0  0  0  0  0  0  0
    5.0391   13.1990   27.2370 F   0  0  0  0  0  0  0  0  0  0  0  0
    9.3380   12.2075   24.6949 C   0  0  0  0  0  0  0  0  0  0  0  0
   10.4184   12.1434   23.8119 C   0  0  0  0  0  0  0  0  0  0  0  0
   11.1710   13.2687   23.6320 O   0  0  0  0  0  0  0  0  0  0  0  0
  1  2  2  0
  2  3  1  0
  3  4  1  0
  2  5  1  0
  5  6  2  0
  6  7  1  0
  7  8  2  0
  8  9  1  0
  9 10  1  0
 10 11  1  0
 11 12  1  0
 11 13  1  0
 11 14  1  0
  8 15  1  0
 15 16  2  0
 16 17  1  0
 16  5  1  0
M  END
>  <Crystalforms alias>  (208) 
nan

>  <original ID>  (208) 
DVBYMPFGSSMXKN-UHFFFAOYSA-N

>  <alias>  (208) 
None

>  <distance_score>  (208) 
0.374095

>  <CanonSites upload name>  (208) 
nan

>  <CanonSites alias>  (208) 
nan

>  <ConformerSites alias>  (208) 
nan

>  <observation_longname>  (208) 
nan

>  <CrystalformSites alias>  (208) 
nan

>  <tags>  (208) 
[]

>  <ref_mols>  (208) 
A1775a

>  <ref_pdb>  (208) 
A1775a

>  <Quatassemblies upload name>  (208) 
nan

>  <inchikey>  (208) 
DVBYMPFGSSMXKN-UHFFFAOYSA-N

>  <Experiment code>  (208) 
nan

>  <Quatassemblies alias>  (208) 
nan

>  <Crystalforms upload name>  (208) 
nan

>  <Centroid res>  (208) 
nan

>  <ConformerSites upload name>  (208) 
nan

>  <energy_score>  (208) 
-22.090048

>  <original SMILES>  (208) 
O=C(CCl)c1ccc(OCC(F)(F)F)cc1O

>  <exports>  (208) 
nan

>  <CrystalformSites upload name>  (208) 
nan

>  <name>  (208) 
DVBYMPFGSSMXKN-UHFFFAOYSA-N

>  <HIPPO ID>  (208) 
128846

$$$$
XGEHJBAORVMZNC-UHFFFAOYSA-N
     RDKit          3D

 21 23  0  0  0  0  0  0  0  0999 V2000
   11.9003   14.2511   19.6875 C   0  0  0  0  0  0  0  0  0  0  0  0
   11.4452   13.7264   21.0519 C   0  0  0  0  0  0  0  0  0  0  0  0
   10.3898   14.1523   21.5230 O   0  0  0  0  0  0  0  0  0  0  0  0
   12.2045   12.8360   21.8298 N   0  0  0  0  0  0  0  0  0  0  0  0
   13.0051   11.8622   21.1702 C   0  0  0  0  0  0  0  0  0  0  0  0
   12.4753   10.4836   21.4945 C   0  0  0  0  0  0  0  0  0  0  0  0
   11.7650   10.2248   22.8413 C   0  0  0  0  0  0  0  0  0  0  0  0
   10.3426    9.8849   22.5863 C   0  0  0  0  0  0  0  0  0  0  0  0
   10.0626    8.9562   21.8414 O   0  0  0  0  0  0  0  0  0  0  0  0
    9.2886   10.5029   23.4095 C   0  0  0  0  0  0  0  0  0  0  0  0
    8.6498    9.6245   24.2673 C   0  0  0  0  0  0  0  0  0  0  0  0
    7.7105   10.1245   25.1497 C   0  0  0  0  0  0  0  0  0  0  0  0
    7.5573   11.4734   25.2634 C   0  0  0  0  0  0  0  0  0  0  0  0
    8.1988   12.3713   24.4421 C   0  0  0  0  0  0  0  0  0  0  0  0
    9.0071   11.8843   23.4420 C   0  0  0  0  0  0  0  0  0  0  0  0
    7.7837   13.7608   24.8190 C   0  0  0  0  0  0  0  0  0  0  0  0
    6.7621   13.4744   25.9451 C   0  0  0  0  0  0  0  0  0  0  0  0
    6.0783   14.2437   26.5954 O   0  0  0  0  0  0  0  0  0  0  0  0
    6.7119   12.1110   26.1305 N   0  0  0  0  0  0  0  0  0  0  0  0
   11.8325   11.2907   23.8997 C   0  0  0  0  0  0  0  0  0  0  0  0
   12.0340   12.6370   23.3077 C   0  0  0  0  0  0  0  0  0  0  0  0
  1  2  1  0
  2  3  2  0
  2  4  1  0
  4  5  1  0
  5  6  1  0
  6  7  1  0
  7  8  1  0
  8  9  2  0
  8 10  1  0
 10 11  2  0
 11 12  1  0
 12 13  2  0
 13 14  1  0
 14 15  2  0
 14 16  1  0
 16 17  1  0
 17 18  2  0
 17 19  1  0
  7 20  1  0
 20 21  1  0
 21  4  1  0
 15 10  1  0
 19 13  1  0
M  END
>  <Crystalforms alias>  (209) 
nan

>  <original ID>  (209) 
XGEHJBAORVMZNC-UHFFFAOYSA-N

>  <alias>  (209) 
None

>  <distance_score>  (209) 
1.615658

>  <CanonSites upload name>  (209) 
nan

>  <CanonSites alias>  (209) 
nan

>  <ConformerSites alias>  (209) 
nan

>  <observation_longname>  (209) 
nan

>  <CrystalformSites alias>  (209) 
nan

>  <tags>  (209) 
[]

>  <ref_mols>  (209) 
A1778a

>  <ref_pdb>  (209) 
A1778a

>  <Quatassemblies upload name>  (209) 
nan

>  <inchikey>  (209) 
XGEHJBAORVMZNC-UHFFFAOYSA-N

>  <Experiment code>  (209) 
nan

>  <Quatassemblies alias>  (209) 
nan

>  <Crystalforms upload name>  (209) 
nan

>  <Centroid res>  (209) 
nan

>  <ConformerSites upload name>  (209) 
nan

>  <energy_score>  (209) 
22.728147

>  <original SMILES>  (209) 
CC(=O)N1CCC(C(=O)c2ccc3c(c2)CC(=O)N3)CC1

>  <exports>  (209) 
nan

>  <CrystalformSites upload name>  (209) 
nan

>  <name>  (209) 
XGEHJBAORVMZNC-UHFFFAOYSA-N

>  <HIPPO ID>  (209) 
133625

$$$$
HELNCGFLRABPPE-UHFFFAOYSA-N
     RDKit          3D

 22 24  0  0  0  0  0  0  0  0999 V2000
   16.2373   15.2818   25.5897 N   0  0  0  0  0  0  0  0  0  0  0  0
   15.0608   14.4144   25.5932 C   0  0  0  0  0  0  0  0  0  0  0  0
   14.9519   13.5761   24.3338 C   0  0  0  0  0  0  0  0  0  0  0  0
   15.9133   13.3506   23.6084 O   0  0  0  0  0  0  0  0  0  0  0  0
   13.6747   13.3430   23.8175 N   0  0  0  0  0  0  0  0  0  0  0  0
   13.5656   12.8955   22.3978 C   0  0  0  0  0  0  0  0  0  0  0  0
   12.6087   11.8704   21.8902 C   0  0  0  0  0  0  0  0  0  0  0  0
   11.3714   11.9876   22.6958 C   0  0  0  0  0  0  0  0  0  0  0  0
   10.5609   10.7255   22.6520 C   0  0  0  0  0  0  0  0  0  0  0  0
   10.9060    9.6616   22.1611 O   0  0  0  0  0  0  0  0  0  0  0  0
    9.2843   10.9040   23.3695 C   0  0  0  0  0  0  0  0  0  0  0  0
    8.8082    9.8681   24.1524 C   0  0  0  0  0  0  0  0  0  0  0  0
    7.8111   10.1699   25.0711 C   0  0  0  0  0  0  0  0  0  0  0  0
    7.4551   11.4760   25.2914 C   0  0  0  0  0  0  0  0  0  0  0  0
    7.9152   12.4904   24.4951 C   0  0  0  0  0  0  0  0  0  0  0  0
    8.7318   12.2044   23.4469 C   0  0  0  0  0  0  0  0  0  0  0  0
    7.4142   13.8014   24.9740 C   0  0  0  0  0  0  0  0  0  0  0  0
    6.5721   13.3791   26.1790 C   0  0  0  0  0  0  0  0  0  0  0  0
    5.9688   14.1060   26.9481 O   0  0  0  0  0  0  0  0  0  0  0  0
    6.6185   11.9914   26.2569 N   0  0  0  0  0  0  0  0  0  0  0  0
   11.4527   12.4444   24.1826 C   0  0  0  0  0  0  0  0  0  0  0  0
   12.7428   12.8692   24.7826 C   0  0  0  0  0  0  0  0  0  0  0  0
  1  2  1  0
  2  3  1  0
  3  4  2  0
  3  5  1  0
  5  6  1  0
  6  7  1  0
  7  8  1  0
  8  9  1  0
  9 10  2  0
  9 11  1  0
 11 12  2  0
 12 13  1  0
 13 14  2  0
 14 15  1  0
 15 16  2  0
 15 17  1  0
 17 18  1  0
 18 19  2  0
 18 20  1  0
  8 21  1  0
 21 22  1  0
 22  5  1  0
 16 11  1  0
 20 14  1  0
M  END
>  <Crystalforms alias>  (210) 
nan

>  <original ID>  (210) 
HELNCGFLRABPPE-UHFFFAOYSA-N

>  <alias>  (210) 
None

>  <distance_score>  (210) 
1.616557

>  <CanonSites upload name>  (210) 
nan

>  <CanonSites alias>  (210) 
nan

>  <ConformerSites alias>  (210) 
nan

>  <observation_longname>  (210) 
nan

>  <CrystalformSites alias>  (210) 
nan

>  <tags>  (210) 
[]

>  <ref_mols>  (210) 
A1778a

>  <ref_pdb>  (210) 
A1778a

>  <Quatassemblies upload name>  (210) 
nan

>  <inchikey>  (210) 
HELNCGFLRABPPE-UHFFFAOYSA-N

>  <Experiment code>  (210) 
nan

>  <Quatassemblies alias>  (210) 
nan

>  <Crystalforms upload name>  (210) 
nan

>  <Centroid res>  (210) 
nan

>  <ConformerSites upload name>  (210) 
nan

>  <energy_score>  (210) 
-1.428612

>  <original SMILES>  (210) 
NCC(=O)N1CCC(C(=O)c2ccc3c(c2)CC(=O)N3)CC1

>  <exports>  (210) 
nan

>  <CrystalformSites upload name>  (210) 
nan

>  <name>  (210) 
HELNCGFLRABPPE-UHFFFAOYSA-N

>  <HIPPO ID>  (210) 
133876

$$$$
KGBVVWICIGVOAB-UHFFFAOYSA-N
     RDKit          3D

 23 25  0  0  0  0  0  0  0  0999 V2000
   11.7225   17.2432   17.5559 C   0  0  0  0  0  0  0  0  0  0  0  0
   12.1830   16.5465   18.6038 C   0  0  0  0  0  0  0  0  0  0  0  0
   13.0757   17.5259   19.6472 Cl  0  0  0  0  0  0  0  0  0  0  0  0
   11.9941   15.0268   18.6785 C   0  0  0  0  0  0  0  0  0  0  0  0
   11.5853   14.4444   17.6741 O   0  0  0  0  0  0  0  0  0  0  0  0
   12.1438   14.2735   19.8431 N   0  0  0  0  0  0  0  0  0  0  0  0
   10.8942   14.2642   20.5649 C   0  0  0  0  0  0  0  0  0  0  0  0
   10.7114   13.2962   21.7221 C   0  0  0  0  0  0  0  0  0  0  0  0
   11.8749   12.3454   22.1082 C   0  0  0  0  0  0  0  0  0  0  0  0
   11.3050   11.0054   22.6036 C   0  0  0  0  0  0  0  0  0  0  0  0
   11.5657    9.9231   22.0837 O   0  0  0  0  0  0  0  0  0  0  0  0
   10.3232   11.0549   23.7297 C   0  0  0  0  0  0  0  0  0  0  0  0
    9.4948    9.9452   23.9273 C   0  0  0  0  0  0  0  0  0  0  0  0
    8.3715   10.0584   24.7427 C   0  0  0  0  0  0  0  0  0  0  0  0
    8.0515   11.2919   25.2575 C   0  0  0  0  0  0  0  0  0  0  0  0
    8.8953   12.3736   25.1133 C   0  0  0  0  0  0  0  0  0  0  0  0
   10.0906   12.2381   24.4476 C   0  0  0  0  0  0  0  0  0  0  0  0
    8.2654   13.5947   25.7033 C   0  0  0  0  0  0  0  0  0  0  0  0
    6.9789   13.0233   26.3094 C   0  0  0  0  0  0  0  0  0  0  0  0
    6.1474   13.6214   26.9710 O   0  0  0  0  0  0  0  0  0  0  0  0
    6.9288   11.6705   25.9732 N   0  0  0  0  0  0  0  0  0  0  0  0
   12.9818   12.1648   21.0570 C   0  0  0  0  0  0  0  0  0  0  0  0
   12.8372   12.9449   19.7461 C   0  0  0  0  0  0  0  0  0  0  0  0
  1  2  2  0
  2  3  1  0
  2  4  1  0
  4  5  2  0
  4  6  1  0
  6  7  1  0
  7  8  1  0
  8  9  1  0
  9 10  1  0
 10 11  2  0
 10 12  1  0
 12 13  2  0
 13 14  1  0
 14 15  2  0
 15 16  1  0
 16 17  2  0
 16 18  1  0
 18 19  1  0
 19 20  2  0
 19 21  1  0
  9 22  1  0
 22 23  1  0
 23  6  1  0
 17 12  1  0
 21 15  1  0
M  END
>  <Crystalforms alias>  (211) 
nan

>  <original ID>  (211) 
KGBVVWICIGVOAB-UHFFFAOYSA-N

>  <alias>  (211) 
None

>  <distance_score>  (211) 
1.434524

>  <CanonSites upload name>  (211) 
nan

>  <CanonSites alias>  (211) 
nan

>  <ConformerSites alias>  (211) 
nan

>  <observation_longname>  (211) 
nan

>  <CrystalformSites alias>  (211) 
nan

>  <tags>  (211) 
[]

>  <ref_mols>  (211) 
A1778a

>  <ref_pdb>  (211) 
A1778a

>  <Quatassemblies upload name>  (211) 
nan

>  <inchikey>  (211) 
KGBVVWICIGVOAB-UHFFFAOYSA-N

>  <Experiment code>  (211) 
nan

>  <Quatassemblies alias>  (211) 
nan

>  <Crystalforms upload name>  (211) 
nan

>  <Centroid res>  (211) 
nan

>  <ConformerSites upload name>  (211) 
nan

>  <energy_score>  (211) 
-1.481584

>  <original SMILES>  (211) 
C=C(Cl)C(=O)N1CCC(C(=O)c2ccc3c(c2)CC(=O)N3)CC1

>  <exports>  (211) 
nan

>  <CrystalformSites upload name>  (211) 
nan

>  <name>  (211) 
KGBVVWICIGVOAB-UHFFFAOYSA-N

>  <HIPPO ID>  (211) 
133878

$$$$
PQUXRIKKCAPQTD-UHFFFAOYSA-N
     RDKit          3D

 23 25  0  0  0  0  0  0  0  0999 V2000
   17.2743   14.5482   19.3978 N   0  0  0  0  0  0  0  0  0  0  0  0
   16.6162   13.8051   19.9998 C   0  0  0  0  0  0  0  0  0  0  0  0
   15.7427   12.6703   20.4200 C   0  0  0  0  0  0  0  0  0  0  0  0
   15.0796   12.6520   21.7186 C   0  0  0  0  0  0  0  0  0  0  0  0
   15.5319   13.1107   22.7676 O   0  0  0  0  0  0  0  0  0  0  0  0
   13.7850   12.2033   21.5918 N   0  0  0  0  0  0  0  0  0  0  0  0
   13.2982   11.1913   20.7223 C   0  0  0  0  0  0  0  0  0  0  0  0
   12.3105   10.2847   21.4494 C   0  0  0  0  0  0  0  0  0  0  0  0
   11.5866   10.8098   22.6665 C   0  0  0  0  0  0  0  0  0  0  0  0
   10.2668   10.1539   22.7744 C   0  0  0  0  0  0  0  0  0  0  0  0
   10.0692    9.0598   22.2540 O   0  0  0  0  0  0  0  0  0  0  0  0
    9.2690   10.7257   23.6986 C   0  0  0  0  0  0  0  0  0  0  0  0
    8.5505    9.7923   24.4352 C   0  0  0  0  0  0  0  0  0  0  0  0
    7.5448   10.2192   25.2926 C   0  0  0  0  0  0  0  0  0  0  0  0
    7.3970   11.5521   25.5112 C   0  0  0  0  0  0  0  0  0  0  0  0
    8.1146   12.4880   24.8137 C   0  0  0  0  0  0  0  0  0  0  0  0
    8.9798   12.0911   23.8338 C   0  0  0  0  0  0  0  0  0  0  0  0
    7.7122   13.8528   25.2421 C   0  0  0  0  0  0  0  0  0  0  0  0
    6.6381   13.5343   26.2971 C   0  0  0  0  0  0  0  0  0  0  0  0
    5.9775   14.3066   26.9682 O   0  0  0  0  0  0  0  0  0  0  0  0
    6.5190   12.1599   26.3714 N   0  0  0  0  0  0  0  0  0  0  0  0
   11.5709   12.2820   22.7055 C   0  0  0  0  0  0  0  0  0  0  0  0
   12.8394   12.9248   22.3074 C   0  0  0  0  0  0  0  0  0  0  0  0
  1  2  3  0
  2  3  1  0
  3  4  1  0
  4  5  2  0
  4  6  1  0
  6  7  1  0
  7  8  1  0
  8  9  1  0
  9 10  1  0
 10 11  2  0
 10 12  1  0
 12 13  2  0
 13 14  1  0
 14 15  2  0
 15 16  1  0
 16 17  2  0
 16 18  1  0
 18 19  1  0
 19 20  2  0
 19 21  1  0
  9 22  1  0
 22 23  1  0
 23  6  1  0
 17 12  1  0
 21 15  1  0
M  END
>  <Crystalforms alias>  (212) 
nan

>  <original ID>  (212) 
PQUXRIKKCAPQTD-UHFFFAOYSA-N

>  <alias>  (212) 
None

>  <distance_score>  (212) 
1.718853

>  <CanonSites upload name>  (212) 
nan

>  <CanonSites alias>  (212) 
nan

>  <ConformerSites alias>  (212) 
nan

>  <observation_longname>  (212) 
nan

>  <CrystalformSites alias>  (212) 
nan

>  <tags>  (212) 
[]

>  <ref_mols>  (212) 
A1778a

>  <ref_pdb>  (212) 
A1778a

>  <Quatassemblies upload name>  (212) 
nan

>  <inchikey>  (212) 
PQUXRIKKCAPQTD-UHFFFAOYSA-N

>  <Experiment code>  (212) 
nan

>  <Quatassemblies alias>  (212) 
nan

>  <Crystalforms upload name>  (212) 
nan

>  <Centroid res>  (212) 
nan

>  <ConformerSites upload name>  (212) 
nan

>  <energy_score>  (212) 
8.246444

>  <original SMILES>  (212) 
N#CCC(=O)N1CCC(C(=O)c2ccc3c(c2)CC(=O)N3)CC1

>  <exports>  (212) 
nan

>  <CrystalformSites upload name>  (212) 
nan

>  <name>  (212) 
PQUXRIKKCAPQTD-UHFFFAOYSA-N

>  <HIPPO ID>  (212) 
133892

$$$$
ANBAAHVCCNMFEA-UHFFFAOYSA-N
     RDKit          3D

 23 25  0  0  0  0  0  0  0  0999 V2000
   13.3439   18.4602   19.2623 C   0  0  0  0  0  0  0  0  0  0  0  0
   13.1394   17.2209   18.6046 O   0  0  0  0  0  0  0  0  0  0  0  0
   12.3375   16.3131   19.3502 C   0  0  0  0  0  0  0  0  0  0  0  0
   12.1506   14.8526   18.7891 C   0  0  0  0  0  0  0  0  0  0  0  0
   11.8567   14.6592   17.6166 O   0  0  0  0  0  0  0  0  0  0  0  0
   12.3712   13.7573   19.6190 N   0  0  0  0  0  0  0  0  0  0  0  0
   11.6059   13.7776   20.8329 C   0  0  0  0  0  0  0  0  0  0  0  0
   12.2727   12.9407   21.9228 C   0  0  0  0  0  0  0  0  0  0  0  0
   12.4154   11.5500   21.5020 C   0  0  0  0  0  0  0  0  0  0  0  0
   11.3473   10.5377   21.9022 C   0  0  0  0  0  0  0  0  0  0  0  0
   11.4639    9.3774   21.5194 O   0  0  0  0  0  0  0  0  0  0  0  0
   10.2638   10.8480   22.9231 C   0  0  0  0  0  0  0  0  0  0  0  0
    9.7079    9.7590   23.6077 C   0  0  0  0  0  0  0  0  0  0  0  0
    8.6837    9.9504   24.5408 C   0  0  0  0  0  0  0  0  0  0  0  0
    8.2975   11.2311   24.8601 C   0  0  0  0  0  0  0  0  0  0  0  0
    8.8338   12.3209   24.2181 C   0  0  0  0  0  0  0  0  0  0  0  0
    9.7355   12.1280   23.1959 C   0  0  0  0  0  0  0  0  0  0  0  0
    8.2295   13.5861   24.7443 C   0  0  0  0  0  0  0  0  0  0  0  0
    7.2356   13.0457   25.7739 C   0  0  0  0  0  0  0  0  0  0  0  0
    6.4888   13.6933   26.4860 O   0  0  0  0  0  0  0  0  0  0  0  0
    7.3333   11.6557   25.7560 N   0  0  0  0  0  0  0  0  0  0  0  0
   13.4790   11.5310   20.4188 C   0  0  0  0  0  0  0  0  0  0  0  0
   13.2954   12.5974   19.3178 C   0  0  0  0  0  0  0  0  0  0  0  0
  1  2  1  0
  2  3  1  0
  3  4  1  0
  4  5  2  0
  4  6  1  0
  6  7  1  0
  7  8  1  0
  8  9  1  0
  9 10  1  0
 10 11  2  0
 10 12  1  0
 12 13  2  0
 13 14  1  0
 14 15  2  0
 15 16  1  0
 16 17  2  0
 16 18  1  0
 18 19  1  0
 19 20  2  0
 19 21  1  0
  9 22  1  0
 22 23  1  0
 23  6  1  0
 17 12  1  0
 21 15  1  0
M  END
>  <Crystalforms alias>  (213) 
nan

>  <original ID>  (213) 
ANBAAHVCCNMFEA-UHFFFAOYSA-N

>  <alias>  (213) 
None

>  <distance_score>  (213) 
0.859691

>  <CanonSites upload name>  (213) 
nan

>  <CanonSites alias>  (213) 
nan

>  <ConformerSites alias>  (213) 
nan

>  <observation_longname>  (213) 
nan

>  <CrystalformSites alias>  (213) 
nan

>  <tags>  (213) 
[]

>  <ref_mols>  (213) 
A1778a

>  <ref_pdb>  (213) 
A1778a

>  <Quatassemblies upload name>  (213) 
nan

>  <inchikey>  (213) 
ANBAAHVCCNMFEA-UHFFFAOYSA-N

>  <Experiment code>  (213) 
nan

>  <Quatassemblies alias>  (213) 
nan

>  <Crystalforms upload name>  (213) 
nan

>  <Centroid res>  (213) 
nan

>  <ConformerSites upload name>  (213) 
nan

>  <energy_score>  (213) 
38.365995

>  <original SMILES>  (213) 
COCC(=O)N1CCC(C(=O)c2ccc3c(c2)CC(=O)N3)CC1

>  <exports>  (213) 
nan

>  <CrystalformSites upload name>  (213) 
nan

>  <name>  (213) 
ANBAAHVCCNMFEA-UHFFFAOYSA-N

>  <HIPPO ID>  (213) 
133896

$$$$
NJBYUOPISWSFMI-KGLIPLIRSA-N
     RDKit          3D

 24 27  0  0  0  0  0  0  0  0999 V2000
    3.4457   15.6150   24.0981 O   0  0  0  0  0  0  0  0  0  0  0  0
    4.3305   14.8538   24.4335 C   0  0  0  0  0  0  0  0  0  0  0  0
    5.6050   14.5142   23.6583 C   0  0  0  0  0  0  0  0  0  0  0  0
    6.2084   13.4547   24.5320 C   0  0  0  0  0  0  0  0  0  0  0  0
    7.2967   12.6444   24.2922 C   0  0  0  0  0  0  0  0  0  0  0  0
    7.4978   11.5584   25.1449 C   0  0  0  0  0  0  0  0  0  0  0  0
    8.4406   10.4573   24.8348 C   0  0  0  0  0  0  0  0  0  0  0  0
    7.9816    9.3179   24.9069 O   0  0  0  0  0  0  0  0  0  0  0  0
    9.8905   10.6135   24.4725 C   0  0  0  0  0  0  0  0  0  0  0  0
   10.1290    9.6818   23.2673 C   0  0  0  0  0  0  0  0  0  0  0  0
   11.2923   10.0985   22.4201 C   0  0  0  0  0  0  0  0  0  0  0  0
   11.3561   11.5390   22.2426 N   0  0  0  0  0  0  0  0  0  0  0  0
   12.5315   12.1473   21.8952 C   0  0  0  0  0  0  0  0  0  0  0  0
   12.9454   13.1499   22.4653 O   0  0  0  0  0  0  0  0  0  0  0  0
   13.2961   11.5036   20.8194 C   0  0  2  0  0  0  0  0  0  0  0  0
   14.6546   12.0256   20.5255 C   0  0  0  0  0  0  0  0  0  0  0  0
   13.5392   12.2658   19.5569 C   0  0  2  0  0  0  0  0  0  0  0  0
   12.8190   13.4335   19.4068 F   0  0  0  0  0  0  0  0  0  0  0  0
   10.3843   12.3538   22.9120 C   0  0  0  0  0  0  0  0  0  0  0  0
   10.4230   12.0337   24.3688 C   0  0  0  0  0  0  0  0  0  0  0  0
    6.6063   11.3429   26.2227 C   0  0  0  0  0  0  0  0  0  0  0  0
    5.5710   12.2185   26.5173 C   0  0  0  0  0  0  0  0  0  0  0  0
    5.3875   13.2461   25.6364 C   0  0  0  0  0  0  0  0  0  0  0  0
    4.3281   14.1226   25.6075 N   0  0  0  0  0  0  0  0  0  0  0  0
  1  2  2  0
  2  3  1  0
  3  4  1  0
  4  5  2  0
  5  6  1  0
  6  7  1  0
  7  8  2  0
  7  9  1  0
  9 10  1  0
 10 11  1  0
 11 12  1  0
 12 13  1  0
 13 14  2  0
 15 13  1  1
 15 16  1  0
 16 17  1  0
 17 18  1  1
 12 19  1  0
 19 20  1  0
  6 21  2  0
 21 22  1  0
 22 23  2  0
 23 24  1  0
 24  2  1  0
 23  4  1  0
 20  9  1  0
 17 15  1  0
M  END
>  <Crystalforms alias>  (214) 
nan

>  <original ID>  (214) 
NJBYUOPISWSFMI-KGLIPLIRSA-N

>  <alias>  (214) 
None

>  <distance_score>  (214) 
4.202978

>  <CanonSites upload name>  (214) 
nan

>  <CanonSites alias>  (214) 
nan

>  <ConformerSites alias>  (214) 
nan

>  <observation_longname>  (214) 
nan

>  <CrystalformSites alias>  (214) 
nan

>  <tags>  (214) 
[]

>  <ref_mols>  (214) 
A1778a

>  <ref_pdb>  (214) 
A1778a

>  <Quatassemblies upload name>  (214) 
nan

>  <inchikey>  (214) 
NJBYUOPISWSFMI-KGLIPLIRSA-N

>  <Experiment code>  (214) 
nan

>  <Quatassemblies alias>  (214) 
nan

>  <Crystalforms upload name>  (214) 
nan

>  <Centroid res>  (214) 
nan

>  <ConformerSites upload name>  (214) 
nan

>  <energy_score>  (214) 
-15.468782

>  <original SMILES>  (214) 
O=C1Cc2cc(C(=O)C3CCN(C(=O)[C@@H]4C[C@@H]4F)CC3)ccc2N1

>  <exports>  (214) 
nan

>  <CrystalformSites upload name>  (214) 
nan

>  <name>  (214) 
NJBYUOPISWSFMI-KGLIPLIRSA-N

>  <HIPPO ID>  (214) 
133953

$$$$
SZDMXPPVWODONF-GTNSWQLSSA-N
     RDKit          3D

 26 28  0  0  0  0  0  0  0  0999 V2000
   14.1524   20.0008   17.9033 C   0  0  0  0  0  0  0  0  0  0  0  0
   13.3884   18.8482   17.5836 O   0  0  0  0  0  0  0  0  0  0  0  0
   12.8574   18.1526   18.7351 C   0  0  1  0  0  0  0  0  0  0  0  0
   11.9377   19.0831   19.5158 C   0  0  0  0  0  0  0  0  0  0  0  0
   12.1989   16.8214   18.2396 C   0  0  2  0  0  0  0  0  0  0  0  0
   10.8414   16.9270   17.6947 N   0  0  0  0  0  0  0  0  0  0  0  0
   12.3740   15.6870   19.2809 C   0  0  0  0  0  0  0  0  0  0  0  0
   12.5222   16.0231   20.4461 O   0  0  0  0  0  0  0  0  0  0  0  0
   12.1527   14.3219   18.9594 N   0  0  0  0  0  0  0  0  0  0  0  0
   13.0695   13.1155   19.2228 C   0  0  0  0  0  0  0  0  0  0  0  0
   12.9838   12.3320   20.5516 C   0  0  0  0  0  0  0  0  0  0  0  0
   11.8673   12.7204   21.5406 C   0  0  0  0  0  0  0  0  0  0  0  0
   11.3070   11.4177   22.1946 C   0  0  0  0  0  0  0  0  0  0  0  0
   11.7019   10.2920   21.8747 O   0  0  0  0  0  0  0  0  0  0  0  0
   10.2637   11.4674   23.2546 C   0  0  0  0  0  0  0  0  0  0  0  0
    9.7032   10.2371   23.6688 C   0  0  0  0  0  0  0  0  0  0  0  0
    8.6331   10.1936   24.5614 C   0  0  0  0  0  0  0  0  0  0  0  0
    8.1584   11.3864   25.0434 C   0  0  0  0  0  0  0  0  0  0  0  0
    8.7306   12.5944   24.6827 C   0  0  0  0  0  0  0  0  0  0  0  0
    9.7792   12.6592   23.7907 C   0  0  0  0  0  0  0  0  0  0  0  0
    8.0191   13.7142   25.3646 C   0  0  0  0  0  0  0  0  0  0  0  0
    6.9553   12.9739   26.1764 C   0  0  0  0  0  0  0  0  0  0  0  0
    6.1389   13.4654   26.9375 O   0  0  0  0  0  0  0  0  0  0  0  0
    7.0971   11.6146   25.9029 N   0  0  0  0  0  0  0  0  0  0  0  0
   10.7383   13.7298   20.9316 C   0  0  0  0  0  0  0  0  0  0  0  0
   10.8315   14.0888   19.4053 C   0  0  0  0  0  0  0  0  0  0  0  0
  1  2  1  0
  2  3  1  0
  3  4  1  6
  3  5  1  0
  5  6  1  1
  5  7  1  0
  7  8  2  0
  7  9  1  0
  9 10  1  0
 10 11  1  0
 11 12  1  0
 12 13  1  0
 13 14  2  0
 13 15  1  0
 15 16  2  0
 16 17  1  0
 17 18  2  0
 18 19  1  0
 19 20  2  0
 19 21  1  0
 21 22  1  0
 22 23  2  0
 22 24  1  0
 12 25  1  0
 25 26  1  0
 26  9  1  0
 20 15  1  0
 24 18  1  0
M  END
>  <Crystalforms alias>  (215) 
nan

>  <original ID>  (215) 
SZDMXPPVWODONF-GTNSWQLSSA-N

>  <alias>  (215) 
None

>  <distance_score>  (215) 
1.126044

>  <CanonSites upload name>  (215) 
nan

>  <CanonSites alias>  (215) 
nan

>  <ConformerSites alias>  (215) 
nan

>  <observation_longname>  (215) 
nan

>  <CrystalformSites alias>  (215) 
nan

>  <tags>  (215) 
[]

>  <ref_mols>  (215) 
A1778a

>  <ref_pdb>  (215) 
A1778a

>  <Quatassemblies upload name>  (215) 
nan

>  <inchikey>  (215) 
SZDMXPPVWODONF-GTNSWQLSSA-N

>  <Experiment code>  (215) 
nan

>  <Quatassemblies alias>  (215) 
nan

>  <Crystalforms upload name>  (215) 
nan

>  <Centroid res>  (215) 
nan

>  <ConformerSites upload name>  (215) 
nan

>  <energy_score>  (215) 
2.50494

>  <original SMILES>  (215) 
CO[C@@H](C)[C@H](N)C(=O)N1CCC(C(=O)c2ccc3c(c2)CC(=O)N3)CC1

>  <exports>  (215) 
nan

>  <CrystalformSites upload name>  (215) 
nan

>  <name>  (215) 
SZDMXPPVWODONF-GTNSWQLSSA-N

>  <HIPPO ID>  (215) 
134053

$$$$
SZDMXPPVWODONF-DIFFPNOSSA-N
     RDKit          3D

 26 28  0  0  0  0  0  0  0  0999 V2000
   15.1789   12.6960   22.0214 C   0  0  0  0  0  0  0  0  0  0  0  0
   15.7850   13.1628   23.2454 O   0  0  0  0  0  0  0  0  0  0  0  0
   15.3319   13.3199   24.6072 C   0  0  2  0  0  0  0  0  0  0  0  0
   16.0618   12.4021   25.6128 C   0  0  0  0  0  0  0  0  0  0  0  0
   13.8618   13.7008   24.9689 C   0  0  2  0  0  0  0  0  0  0  0  0
   13.6428   13.8275   26.4232 N   0  0  0  0  0  0  0  0  0  0  0  0
   12.7450   12.9414   24.2205 C   0  0  0  0  0  0  0  0  0  0  0  0
   12.6062   13.1237   23.0088 O   0  0  0  0  0  0  0  0  0  0  0  0
   11.7606   12.1816   24.7975 N   0  0  0  0  0  0  0  0  0  0  0  0
   10.6735   12.8896   25.4336 C   0  0  0  0  0  0  0  0  0  0  0  0
    9.6644   13.4508   24.4406 C   0  0  0  0  0  0  0  0  0  0  0  0
    9.1153   12.3337   23.5525 C   0  0  0  0  0  0  0  0  0  0  0  0
    8.2135   11.4237   24.3569 C   0  0  0  0  0  0  0  0  0  0  0  0
    8.4420   10.2279   24.5256 O   0  0  0  0  0  0  0  0  0  0  0  0
    7.0159   12.0107   24.9989 C   0  0  0  0  0  0  0  0  0  0  0  0
    6.5050   11.3302   26.1191 C   0  0  0  0  0  0  0  0  0  0  0  0
    5.4181   11.8039   26.8339 C   0  0  0  0  0  0  0  0  0  0  0  0
    4.8230   12.9320   26.3390 C   0  0  0  0  0  0  0  0  0  0  0  0
    5.2638   13.5906   25.1920 C   0  0  0  0  0  0  0  0  0  0  0  0
    6.3862   13.1612   24.5155 C   0  0  0  0  0  0  0  0  0  0  0  0
    4.2929   14.6803   24.8464 C   0  0  0  0  0  0  0  0  0  0  0  0
    3.2959   14.5862   26.0047 C   0  0  0  0  0  0  0  0  0  0  0  0
    2.3079   15.2686   26.1964 O   0  0  0  0  0  0  0  0  0  0  0  0
    3.6938   13.5465   26.8290 N   0  0  0  0  0  0  0  0  0  0  0  0
   10.2404   11.5060   22.9391 C   0  0  0  0  0  0  0  0  0  0  0  0
   11.2475   11.0656   23.9827 C   0  0  0  0  0  0  0  0  0  0  0  0
  1  2  1  0
  2  3  1  0
  3  4  1  1
  3  5  1  0
  5  6  1  1
  5  7  1  0
  7  8  2  0
  7  9  1  0
  9 10  1  0
 10 11  1  0
 11 12  1  0
 12 13  1  0
 13 14  2  0
 13 15  1  0
 15 16  2  0
 16 17  1  0
 17 18  2  0
 18 19  1  0
 19 20  2  0
 19 21  1  0
 21 22  1  0
 22 23  2  0
 22 24  1  0
 12 25  1  0
 25 26  1  0
 26  9  1  0
 20 15  1  0
 24 18  1  0
M  END
>  <Crystalforms alias>  (216) 
nan

>  <original ID>  (216) 
SZDMXPPVWODONF-DIFFPNOSSA-N

>  <alias>  (216) 
None

>  <distance_score>  (216) 
4.540837

>  <CanonSites upload name>  (216) 
nan

>  <CanonSites alias>  (216) 
nan

>  <ConformerSites alias>  (216) 
nan

>  <observation_longname>  (216) 
nan

>  <CrystalformSites alias>  (216) 
nan

>  <tags>  (216) 
[]

>  <ref_mols>  (216) 
A1778a

>  <ref_pdb>  (216) 
A1778a

>  <Quatassemblies upload name>  (216) 
nan

>  <inchikey>  (216) 
SZDMXPPVWODONF-DIFFPNOSSA-N

>  <Experiment code>  (216) 
nan

>  <Quatassemblies alias>  (216) 
nan

>  <Crystalforms upload name>  (216) 
nan

>  <Centroid res>  (216) 
nan

>  <ConformerSites upload name>  (216) 
nan

>  <energy_score>  (216) 
17.64322

>  <original SMILES>  (216) 
CO[C@H](C)[C@H](N)C(=O)N1CCC(C(=O)c2ccc3c(c2)CC(=O)N3)CC1

>  <exports>  (216) 
nan

>  <CrystalformSites upload name>  (216) 
nan

>  <name>  (216) 
SZDMXPPVWODONF-DIFFPNOSSA-N

>  <HIPPO ID>  (216) 
134054

$$$$
QCDPODCBNROZRQ-UHFFFAOYSA-N
     RDKit          3D

 20 21  0  0  0  0  0  0  0  0999 V2000
   11.7212   15.9002   23.7442 C   0  0  0  0  0  0  0  0  0  0  0  0
   11.7726   14.7511   24.7379 C   0  0  0  0  0  0  0  0  0  0  0  0
   10.8561   13.7115   24.2943 N   0  0  0  0  0  0  0  0  0  0  0  0
   10.8603   13.2861   23.0039 C   0  0  0  0  0  0  0  0  0  0  0  0
   11.6724   13.6629   22.1682 O   0  0  0  0  0  0  0  0  0  0  0  0
    9.9092   12.3769   22.6883 N   0  0  0  0  0  0  0  0  0  0  0  0
    9.0413   11.7152   23.5684 C   0  0  0  0  0  0  0  0  0  0  0  0
    9.1369   10.3251   23.5130 C   0  0  0  0  0  0  0  0  0  0  0  0
    8.3919    9.5463   24.3782 C   0  0  0  0  0  0  0  0  0  0  0  0
    7.5515   10.1398   25.3084 C   0  0  0  0  0  0  0  0  0  0  0  0
    7.4521   11.5200   25.3745 C   0  0  0  0  0  0  0  0  0  0  0  0
    8.1462   12.3414   24.4742 C   0  0  0  0  0  0  0  0  0  0  0  0
    7.9413   13.8355   24.5740 C   0  0  0  0  0  0  0  0  0  0  0  0
    6.2260   14.3720   24.4649 S   0  0  0  0  0  6  0  0  0  0  0  0
    5.8691   14.1342   22.8432 N   0  0  0  0  0  0  0  0  0  0  0  0
    5.3390   13.5268   25.2262 O   0  0  0  0  0  0  0  0  0  0  0  0
    6.2061   15.7956   24.6911 O   0  0  0  0  0  0  0  0  0  0  0  0
   13.1536   14.1626   25.1233 C   0  0  0  0  0  0  0  0  0  0  0  0
   13.0554   14.8691   26.4853 C   0  0  0  0  0  0  0  0  0  0  0  0
   11.5532   15.0422   26.2433 C   0  0  0  0  0  0  0  0  0  0  0  0
  1  2  1  0
  2  3  1  0
  3  4  1  0
  4  5  2  0
  4  6  1  0
  6  7  1  0
  7  8  2  0
  8  9  1  0
  9 10  2  0
 10 11  1  0
 11 12  2  0
 12 13  1  0
 13 14  1  0
 14 15  1  0
 14 16  2  0
 14 17  2  0
  2 18  1  0
 18 19  1  0
 19 20  1  0
 20  2  1  0
 12  7  1  0
M  END
>  <Crystalforms alias>  (217) 
nan

>  <original ID>  (217) 
QCDPODCBNROZRQ-UHFFFAOYSA-N

>  <alias>  (217) 
None

>  <distance_score>  (217) 
1.04846

>  <CanonSites upload name>  (217) 
nan

>  <CanonSites alias>  (217) 
nan

>  <ConformerSites alias>  (217) 
nan

>  <observation_longname>  (217) 
nan

>  <CrystalformSites alias>  (217) 
nan

>  <tags>  (217) 
['Syndirella scaffold']

>  <ref_mols>  (217) 
A0719a,A0884a

>  <ref_pdb>  (217) 
A0310a

>  <Quatassemblies upload name>  (217) 
nan

>  <inchikey>  (217) 
QCDPODCBNROZRQ-UHFFFAOYSA-N

>  <Experiment code>  (217) 
nan

>  <Quatassemblies alias>  (217) 
nan

>  <Crystalforms upload name>  (217) 
nan

>  <Centroid res>  (217) 
nan

>  <ConformerSites upload name>  (217) 
nan

>  <energy_score>  (217) 
-36.824973

>  <original SMILES>  (217) 
CC1(NC(=O)Nc2ccccc2CS(N)(=O)=O)CCC1

>  <exports>  (217) 
nan

>  <CrystalformSites upload name>  (217) 
nan

>  <name>  (217) 
QCDPODCBNROZRQ-UHFFFAOYSA-N

>  <HIPPO ID>  (217) 
134066

$$$$
LFLWDMQUQKNTME-UHFFFAOYSA-N
     RDKit          3D

 22 23  0  0  0  0  0  0  0  0999 V2000
    5.8342   14.0999   22.8882 N   0  0  0  0  0  0  0  0  0  0  0  0
    6.0164   14.4260   24.5243 S   0  0  0  0  0  6  0  0  0  0  0  0
    6.0039   15.8612   24.6549 O   0  0  0  0  0  0  0  0  0  0  0  0
    5.0484   13.6301   25.2395 O   0  0  0  0  0  0  0  0  0  0  0  0
    7.6875   13.8824   24.8540 C   0  0  0  0  0  0  0  0  0  0  0  0
    7.8828   12.3874   24.7699 C   0  0  0  0  0  0  0  0  0  0  0  0
    7.1752   11.5977   25.6891 C   0  0  0  0  0  0  0  0  0  0  0  0
    7.2508   10.2153   25.6468 C   0  0  0  0  0  0  0  0  0  0  0  0
    8.0846    9.5949   24.7285 C   0  0  0  0  0  0  0  0  0  0  0  0
    8.8310   10.3369   23.8414 C   0  0  0  0  0  0  0  0  0  0  0  0
    8.7359   11.7224   23.8539 C   0  0  0  0  0  0  0  0  0  0  0  0
    9.5143   12.3236   22.8703 N   0  0  0  0  0  0  0  0  0  0  0  0
   10.2273   13.4578   22.9306 C   0  0  0  0  0  0  0  0  0  0  0  0
   10.5880   13.9830   21.8901 O   0  0  0  0  0  0  0  0  0  0  0  0
   10.5513   13.8499   24.1941 N   0  0  0  0  0  0  0  0  0  0  0  0
   11.5676   14.8652   24.4832 C   0  0  0  0  0  0  0  0  0  0  0  0
   11.4489   15.2887   25.9341 C   0  0  0  0  0  0  0  0  0  0  0  0
   11.3703   14.2069   26.7407 F   0  0  0  0  0  0  0  0  0  0  0  0
   10.2753   15.9387   26.1581 F   0  0  0  0  0  0  0  0  0  0  0  0
   11.7254   15.9338   23.3653 C   0  0  0  0  0  0  0  0  0  0  0  0
   12.9367   15.1804   22.8432 C   0  0  0  0  0  0  0  0  0  0  0  0
   12.9664   14.3251   24.1253 C   0  0  0  0  0  0  0  0  0  0  0  0
  1  2  1  0
  2  3  2  0
  2  4  2  0
  2  5  1  0
  5  6  1  0
  6  7  2  0
  7  8  1  0
  8  9  2  0
  9 10  1  0
 10 11  2  0
 11 12  1  0
 12 13  1  0
 13 14  2  0
 13 15  1  0
 15 16  1  0
 16 17  1  0
 17 18  1  0
 17 19  1  0
 16 20  1  0
 20 21  1  0
 21 22  1  0
 11  6  1  0
 22 16  1  0
M  END
>  <Crystalforms alias>  (218) 
nan

>  <original ID>  (218) 
LFLWDMQUQKNTME-UHFFFAOYSA-N

>  <alias>  (218) 
None

>  <distance_score>  (218) 
1.109187

>  <CanonSites upload name>  (218) 
nan

>  <CanonSites alias>  (218) 
nan

>  <ConformerSites alias>  (218) 
nan

>  <observation_longname>  (218) 
nan

>  <CrystalformSites alias>  (218) 
nan

>  <tags>  (218) 
[]

>  <ref_mols>  (218) 
A0719a,A0884a

>  <ref_pdb>  (218) 
A0310a

>  <Quatassemblies upload name>  (218) 
nan

>  <inchikey>  (218) 
LFLWDMQUQKNTME-UHFFFAOYSA-N

>  <Experiment code>  (218) 
nan

>  <Quatassemblies alias>  (218) 
nan

>  <Crystalforms upload name>  (218) 
nan

>  <Centroid res>  (218) 
nan

>  <ConformerSites upload name>  (218) 
nan

>  <energy_score>  (218) 
-33.574809

>  <original SMILES>  (218) 
NS(=O)(=O)Cc1ccccc1NC(=O)NC1(C(F)F)CCC1

>  <exports>  (218) 
nan

>  <CrystalformSites upload name>  (218) 
nan

>  <name>  (218) 
LFLWDMQUQKNTME-UHFFFAOYSA-N

>  <HIPPO ID>  (218) 
134696

$$$$
YJFNFQHMQJCPRG-UHFFFAOYSA-N
     RDKit          3D

 12 12  0  0  0  0  0  0  0  0999 V2000
    5.5274   11.9220   26.9600 C   0  0  0  0  0  0  0  0  0  0  0  0
    6.7849   12.2259   26.1729 C   0  0  0  0  0  0  0  0  0  0  0  0
    7.3393   10.9951   25.7231 O   0  0  0  0  0  0  0  0  0  0  0  0
    8.4476   11.0748   24.9304 C   0  0  0  0  0  0  0  0  0  0  0  0
    9.2084   12.2159   24.7014 C   0  0  0  0  0  0  0  0  0  0  0  0
   10.2893   12.1668   23.8214 C   0  0  0  0  0  0  0  0  0  0  0  0
   10.6218   10.9684   23.1813 C   0  0  0  0  0  0  0  0  0  0  0  0
   11.6903   10.8968   22.1613 C   0  0  0  0  0  0  0  0  0  0  0  0
   12.4143   12.1711   21.8024 C   0  0  0  0  0  0  0  0  0  0  0  0
   11.9345    9.8244   21.6102 O   0  0  0  0  0  0  0  0  0  0  0  0
    9.8981    9.8116   23.4549 C   0  0  0  0  0  0  0  0  0  0  0  0
    8.8141    9.8765   24.3198 C   0  0  0  0  0  0  0  0  0  0  0  0
  1  2  1  0
  2  3  1  0
  3  4  1  0
  4  5  2  0
  5  6  1  0
  6  7  2  0
  7  8  1  0
  8  9  1  0
  8 10  2  0
  7 11  1  0
 11 12  2  0
 12  4  1  0
M  END
>  <Crystalforms alias>  (219) 
nan

>  <original ID>  (219) 
YJFNFQHMQJCPRG-UHFFFAOYSA-N

>  <alias>  (219) 
None

>  <distance_score>  (219) 
0.507466

>  <CanonSites upload name>  (219) 
nan

>  <CanonSites alias>  (219) 
nan

>  <ConformerSites alias>  (219) 
nan

>  <observation_longname>  (219) 
nan

>  <CrystalformSites alias>  (219) 
nan

>  <tags>  (219) 
['Syndirella scaffold']

>  <ref_mols>  (219) 
A1775a

>  <ref_pdb>  (219) 
A1775a

>  <Quatassemblies upload name>  (219) 
nan

>  <inchikey>  (219) 
YJFNFQHMQJCPRG-UHFFFAOYSA-N

>  <Experiment code>  (219) 
nan

>  <Quatassemblies alias>  (219) 
nan

>  <Crystalforms upload name>  (219) 
nan

>  <Centroid res>  (219) 
nan

>  <ConformerSites upload name>  (219) 
nan

>  <energy_score>  (219) 
-10.886583

>  <original SMILES>  (219) 
CCOc1ccc(C(C)=O)cc1

>  <exports>  (219) 
nan

>  <CrystalformSites upload name>  (219) 
nan

>  <name>  (219) 
YJFNFQHMQJCPRG-UHFFFAOYSA-N

>  <HIPPO ID>  (219) 
141580

$$$$
RTYYKCQJSTZADZ-UHFFFAOYSA-N
     RDKit          3D

 13 13  0  0  0  0  0  0  0  0999 V2000
    4.7253   13.1550   27.2676 C   0  0  0  0  0  0  0  0  0  0  0  0
    5.4783   11.9009   26.8658 C   0  0  0  0  0  0  0  0  0  0  0  0
    6.7601   12.2212   26.1123 C   0  0  0  0  0  0  0  0  0  0  0  0
    7.3639   10.9892   25.7318 O   0  0  0  0  0  0  0  0  0  0  0  0
    8.4630   11.0708   24.9275 C   0  0  0  0  0  0  0  0  0  0  0  0
    9.2175   12.2147   24.6924 C   0  0  0  0  0  0  0  0  0  0  0  0
   10.2946   12.1673   23.8082 C   0  0  0  0  0  0  0  0  0  0  0  0
   10.6295   10.9678   23.1712 C   0  0  0  0  0  0  0  0  0  0  0  0
   11.6978   10.8957   22.1515 C   0  0  0  0  0  0  0  0  0  0  0  0
   12.4229   12.1692   21.7926 C   0  0  0  0  0  0  0  0  0  0  0  0
   11.9422    9.8226   21.6021 O   0  0  0  0  0  0  0  0  0  0  0  0
    9.9100    9.8093   23.4492 C   0  0  0  0  0  0  0  0  0  0  0  0
    8.8294    9.8722   24.3178 C   0  0  0  0  0  0  0  0  0  0  0  0
  1  2  1  0
  2  3  1  0
  3  4  1  0
  4  5  1  0
  5  6  2  0
  6  7  1  0
  7  8  2  0
  8  9  1  0
  9 10  1  0
  9 11  2  0
  8 12  1  0
 12 13  2  0
 13  5  1  0
M  END
>  <Crystalforms alias>  (220) 
nan

>  <original ID>  (220) 
RTYYKCQJSTZADZ-UHFFFAOYSA-N

>  <alias>  (220) 
None

>  <distance_score>  (220) 
0.498525

>  <CanonSites upload name>  (220) 
nan

>  <CanonSites alias>  (220) 
nan

>  <ConformerSites alias>  (220) 
nan

>  <observation_longname>  (220) 
nan

>  <CrystalformSites alias>  (220) 
nan

>  <tags>  (220) 
[]

>  <ref_mols>  (220) 
A1775a

>  <ref_pdb>  (220) 
A1775a

>  <Quatassemblies upload name>  (220) 
nan

>  <inchikey>  (220) 
RTYYKCQJSTZADZ-UHFFFAOYSA-N

>  <Experiment code>  (220) 
nan

>  <Quatassemblies alias>  (220) 
nan

>  <Crystalforms upload name>  (220) 
nan

>  <Centroid res>  (220) 
nan

>  <ConformerSites upload name>  (220) 
nan

>  <energy_score>  (220) 
-18.281562

>  <original SMILES>  (220) 
CCCOc1ccc(C(C)=O)cc1

>  <exports>  (220) 
nan

>  <CrystalformSites upload name>  (220) 
nan

>  <name>  (220) 
RTYYKCQJSTZADZ-UHFFFAOYSA-N

>  <HIPPO ID>  (220) 
141584

$$$$
LRFZWCCZZPOAEN-UHFFFAOYSA-N
     RDKit          3D

 13 13  0  0  0  0  0  0  0  0999 V2000
    5.6008   11.9484   26.9127 C   0  0  0  0  0  0  0  0  0  0  0  0
    6.8435   12.2485   26.0997 C   0  0  0  0  0  0  0  0  0  0  0  0
    7.4084   11.0141   25.6754 O   0  0  0  0  0  0  0  0  0  0  0  0
    8.5053   11.0822   24.8661 C   0  0  0  0  0  0  0  0  0  0  0  0
    9.2577   12.2200   24.5899 C   0  0  0  0  0  0  0  0  0  0  0  0
   10.3340   12.1498   23.7006 C   0  0  0  0  0  0  0  0  0  0  0  0
   10.6713   10.9324   23.1011 C   0  0  0  0  0  0  0  0  0  0  0  0
   11.7434   10.8133   22.0861 C   0  0  0  0  0  0  0  0  0  0  0  0
   11.9585    9.7156   21.5660 O   0  0  0  0  0  0  0  0  0  0  0  0
   12.5244   12.0683   21.6867 C   0  0  0  0  0  0  0  0  0  0  0  0
   13.5944   11.7069   20.7283 N   0  0  0  0  0  0  0  0  0  0  0  0
    9.9485    9.7835   23.4169 C   0  0  0  0  0  0  0  0  0  0  0  0
    8.8694    9.8691   24.2864 C   0  0  0  0  0  0  0  0  0  0  0  0
  1  2  1  0
  2  3  1  0
  3  4  1  0
  4  5  2  0
  5  6  1  0
  6  7  2  0
  7  8  1  0
  8  9  2  0
  8 10  1  0
 10 11  1  0
  7 12  1  0
 12 13  2  0
 13  4  1  0
M  END
>  <Crystalforms alias>  (221) 
nan

>  <original ID>  (221) 
LRFZWCCZZPOAEN-UHFFFAOYSA-N

>  <alias>  (221) 
None

>  <distance_score>  (221) 
0.392341

>  <CanonSites upload name>  (221) 
nan

>  <CanonSites alias>  (221) 
nan

>  <ConformerSites alias>  (221) 
nan

>  <observation_longname>  (221) 
nan

>  <CrystalformSites alias>  (221) 
nan

>  <tags>  (221) 
[]

>  <ref_mols>  (221) 
A1775a

>  <ref_pdb>  (221) 
A1775a

>  <Quatassemblies upload name>  (221) 
nan

>  <inchikey>  (221) 
LRFZWCCZZPOAEN-UHFFFAOYSA-N

>  <Experiment code>  (221) 
nan

>  <Quatassemblies alias>  (221) 
nan

>  <Crystalforms upload name>  (221) 
nan

>  <Centroid res>  (221) 
nan

>  <ConformerSites upload name>  (221) 
nan

>  <energy_score>  (221) 
-30.134383

>  <original SMILES>  (221) 
CCOc1ccc(C(=O)CN)cc1

>  <exports>  (221) 
nan

>  <CrystalformSites upload name>  (221) 
nan

>  <name>  (221) 
LRFZWCCZZPOAEN-UHFFFAOYSA-N

>  <HIPPO ID>  (221) 
141588

$$$$
YTKFPAFKJWBAFG-UHFFFAOYSA-N
     RDKit          3D

 13 13  0  0  0  0  0  0  0  0999 V2000
   12.4228   12.1645   21.7902 C   0  0  0  0  0  0  0  0  0  0  0  0
   11.7046   10.8879   22.1532 C   0  0  0  0  0  0  0  0  0  0  0  0
   11.9477    9.8169   21.5992 O   0  0  0  0  0  0  0  0  0  0  0  0
   10.6435   10.9557   23.1803 C   0  0  0  0  0  0  0  0  0  0  0  0
   10.3195   12.1514   23.8282 C   0  0  0  0  0  0  0  0  0  0  0  0
    9.2340   12.2037   24.7015 C   0  0  0  0  0  0  0  0  0  0  0  0
    8.4573   11.0705   24.9134 C   0  0  0  0  0  0  0  0  0  0  0  0
    7.3223   10.9963   25.6665 O   0  0  0  0  0  0  0  0  0  0  0  0
    6.7327   12.2049   26.1455 C   0  0  0  0  0  0  0  0  0  0  0  0
    5.9932   12.9381   25.0333 C   0  0  0  0  0  0  0  0  0  0  0  0
    5.7385   11.8088   27.2310 C   0  0  0  0  0  0  0  0  0  0  0  0
    8.8245    9.8707   24.3053 C   0  0  0  0  0  0  0  0  0  0  0  0
    9.9140    9.8016   23.4479 C   0  0  0  0  0  0  0  0  0  0  0  0
  1  2  1  0
  2  3  2  0
  2  4  1  0
  4  5  2  0
  5  6  1  0
  6  7  2  0
  7  8  1  0
  8  9  1  0
  9 10  1  0
  9 11  1  0
  7 12  1  0
 12 13  2  0
 13  4  1  0
M  END
>  <Crystalforms alias>  (222) 
nan

>  <original ID>  (222) 
YTKFPAFKJWBAFG-UHFFFAOYSA-N

>  <alias>  (222) 
None

>  <distance_score>  (222) 
0.804481

>  <CanonSites upload name>  (222) 
nan

>  <CanonSites alias>  (222) 
nan

>  <ConformerSites alias>  (222) 
nan

>  <observation_longname>  (222) 
nan

>  <CrystalformSites alias>  (222) 
nan

>  <tags>  (222) 
[]

>  <ref_mols>  (222) 
A1775a

>  <ref_pdb>  (222) 
A1775a

>  <Quatassemblies upload name>  (222) 
nan

>  <inchikey>  (222) 
YTKFPAFKJWBAFG-UHFFFAOYSA-N

>  <Experiment code>  (222) 
nan

>  <Quatassemblies alias>  (222) 
nan

>  <Crystalforms upload name>  (222) 
nan

>  <Centroid res>  (222) 
nan

>  <ConformerSites upload name>  (222) 
nan

>  <energy_score>  (222) 
-16.401199

>  <original SMILES>  (222) 
CC(=O)c1ccc(OC(C)C)cc1

>  <exports>  (222) 
nan

>  <CrystalformSites upload name>  (222) 
nan

>  <name>  (222) 
YTKFPAFKJWBAFG-UHFFFAOYSA-N

>  <HIPPO ID>  (222) 
141595

$$$$
ZYLJLWLQPBRDLN-UHFFFAOYSA-N
     RDKit          3D

 13 13  0  0  0  0  0  0  0  0999 V2000
    5.5706   11.9799   26.9309 C   0  0  0  0  0  0  0  0  0  0  0  0
    6.8235   12.2708   26.1306 C   0  0  0  0  0  0  0  0  0  0  0  0
    7.3797   11.0329   25.7082 O   0  0  0  0  0  0  0  0  0  0  0  0
    8.4785   11.0923   24.9018 C   0  0  0  0  0  0  0  0  0  0  0  0
    8.8264    9.8768   24.3203 C   0  0  0  0  0  0  0  0  0  0  0  0
    9.9029    9.7793   23.4514 C   0  0  0  0  0  0  0  0  0  0  0  0
   10.6416   10.9190   23.1366 C   0  0  0  0  0  0  0  0  0  0  0  0
   11.7024   10.7822   22.1113 C   0  0  0  0  0  0  0  0  0  0  0  0
   11.8728    9.6695   21.6130 O   0  0  0  0  0  0  0  0  0  0  0  0
   12.4746   12.0259   21.7089 C   0  0  0  0  0  0  0  0  0  0  0  0
   13.7032   11.6010   20.4895 Cl  0  0  0  0  0  0  0  0  0  0  0  0
   10.3237   12.1387   23.7425 C   0  0  0  0  0  0  0  0  0  0  0  0
    9.2474   12.2204   24.6315 C   0  0  0  0  0  0  0  0  0  0  0  0
  1  2  1  0
  2  3  1  0
  3  4  1  0
  4  5  2  0
  5  6  1  0
  6  7  2  0
  7  8  1  0
  8  9  2  0
  8 10  1  0
 10 11  1  0
  7 12  1  0
 12 13  2  0
 13  4  1  0
M  END
>  <Crystalforms alias>  (223) 
nan

>  <original ID>  (223) 
ZYLJLWLQPBRDLN-UHFFFAOYSA-N

>  <alias>  (223) 
None

>  <distance_score>  (223) 
0.399232

>  <CanonSites upload name>  (223) 
nan

>  <CanonSites alias>  (223) 
nan

>  <ConformerSites alias>  (223) 
nan

>  <observation_longname>  (223) 
nan

>  <CrystalformSites alias>  (223) 
nan

>  <tags>  (223) 
[]

>  <ref_mols>  (223) 
A1775a

>  <ref_pdb>  (223) 
A1775a

>  <Quatassemblies upload name>  (223) 
nan

>  <inchikey>  (223) 
ZYLJLWLQPBRDLN-UHFFFAOYSA-N

>  <Experiment code>  (223) 
nan

>  <Quatassemblies alias>  (223) 
nan

>  <Crystalforms upload name>  (223) 
nan

>  <Centroid res>  (223) 
nan

>  <ConformerSites upload name>  (223) 
nan

>  <energy_score>  (223) 
-7.795087

>  <original SMILES>  (223) 
CCOc1ccc(C(=O)CCl)cc1

>  <exports>  (223) 
nan

>  <CrystalformSites upload name>  (223) 
nan

>  <name>  (223) 
ZYLJLWLQPBRDLN-UHFFFAOYSA-N

>  <HIPPO ID>  (223) 
141609

$$$$
FLMVKFTYGACBNH-UHFFFAOYSA-N
     RDKit          3D

 13 14  0  0  0  0  0  0  0  0999 V2000
    5.7029   11.9867   26.8138 C   0  0  0  0  0  0  0  0  0  0  0  0
    6.9225   12.2589   25.9552 C   0  0  0  0  0  0  0  0  0  0  0  0
    7.4973   11.0112   25.5900 O   0  0  0  0  0  0  0  0  0  0  0  0
    8.5845   11.0456   24.7611 C   0  0  0  0  0  0  0  0  0  0  0  0
    8.9369    9.7886   24.2376 C   0  0  0  0  0  0  0  0  0  0  0  0
   10.0070    9.6330   23.3682 C   0  0  0  0  0  0  0  0  0  0  0  0
   10.6916   10.7752   23.0289 C   0  0  0  0  0  0  0  0  0  0  0  0
   10.3788   12.0325   23.5266 C   0  0  0  0  0  0  0  0  0  0  0  0
    9.3237   12.1806   24.4151 C   0  0  0  0  0  0  0  0  0  0  0  0
   11.2546   13.0991   22.9472 C   0  0  0  0  0  0  0  0  0  0  0  0
   12.2076   12.3573   22.0169 C   0  0  0  0  0  0  0  0  0  0  0  0
   11.7702   10.9092   22.0743 C   0  0  0  0  0  0  0  0  0  0  0  0
   12.1944    9.9681   21.4266 O   0  0  0  0  0  0  0  0  0  0  0  0
  1  2  1  0
  2  3  1  0
  3  4  1  0
  4  5  2  0
  5  6  1  0
  6  7  2  0
  7  8  1  0
  8  9  2  0
  8 10  1  0
 10 11  1  0
 11 12  1  0
 12 13  2  0
  9  4  1  0
 12  7  1  0
M  END
>  <Crystalforms alias>  (224) 
nan

>  <original ID>  (224) 
FLMVKFTYGACBNH-UHFFFAOYSA-N

>  <alias>  (224) 
None

>  <distance_score>  (224) 
1.134177

>  <CanonSites upload name>  (224) 
nan

>  <CanonSites alias>  (224) 
nan

>  <ConformerSites alias>  (224) 
nan

>  <observation_longname>  (224) 
nan

>  <CrystalformSites alias>  (224) 
nan

>  <tags>  (224) 
[]

>  <ref_mols>  (224) 
A1775a

>  <ref_pdb>  (224) 
A1775a

>  <Quatassemblies upload name>  (224) 
nan

>  <inchikey>  (224) 
FLMVKFTYGACBNH-UHFFFAOYSA-N

>  <Experiment code>  (224) 
nan

>  <Quatassemblies alias>  (224) 
nan

>  <Crystalforms upload name>  (224) 
nan

>  <Centroid res>  (224) 
nan

>  <ConformerSites upload name>  (224) 
nan

>  <energy_score>  (224) 
-20.131646

>  <original SMILES>  (224) 
CCOc1ccc2c(c1)CCC2=O

>  <exports>  (224) 
nan

>  <CrystalformSites upload name>  (224) 
nan

>  <name>  (224) 
FLMVKFTYGACBNH-UHFFFAOYSA-N

>  <HIPPO ID>  (224) 
141613

$$$$
BLAHXQHYMANQBP-UHFFFAOYSA-N
     RDKit          3D

 13 13  0  0  0  0  0  0  0  0999 V2000
    4.4123   12.7800   26.5912 C   0  0  0  0  0  0  0  0  0  0  0  0
    5.5009   12.0301   26.8098 C   0  0  0  0  0  0  0  0  0  0  0  0
    6.8083   12.2579   26.1253 C   0  0  0  0  0  0  0  0  0  0  0  0
    7.3271   11.0071   25.6895 O   0  0  0  0  0  0  0  0  0  0  0  0
    8.4563   11.0689   24.9203 C   0  0  0  0  0  0  0  0  0  0  0  0
    9.2376   12.2015   24.7087 C   0  0  0  0  0  0  0  0  0  0  0  0
   10.3205   12.1477   23.8332 C   0  0  0  0  0  0  0  0  0  0  0  0
   10.6379   10.9523   23.1817 C   0  0  0  0  0  0  0  0  0  0  0  0
   11.7000   10.8838   22.1554 C   0  0  0  0  0  0  0  0  0  0  0  0
   12.4194   12.1604   21.7927 C   0  0  0  0  0  0  0  0  0  0  0  0
   11.9417    9.8130   21.6006 O   0  0  0  0  0  0  0  0  0  0  0  0
    9.9028    9.8002   23.4472 C   0  0  0  0  0  0  0  0  0  0  0  0
    8.8152    9.8696   24.3080 C   0  0  0  0  0  0  0  0  0  0  0  0
  1  2  2  0
  2  3  1  0
  3  4  1  0
  4  5  1  0
  5  6  2  0
  6  7  1  0
  7  8  2  0
  8  9  1  0
  9 10  1  0
  9 11  2  0
  8 12  1  0
 12 13  2  0
 13  5  1  0
M  END
>  <Crystalforms alias>  (225) 
nan

>  <original ID>  (225) 
BLAHXQHYMANQBP-UHFFFAOYSA-N

>  <alias>  (225) 
None

>  <distance_score>  (225) 
0.485482

>  <CanonSites upload name>  (225) 
nan

>  <CanonSites alias>  (225) 
nan

>  <ConformerSites alias>  (225) 
nan

>  <observation_longname>  (225) 
nan

>  <CrystalformSites alias>  (225) 
nan

>  <tags>  (225) 
[]

>  <ref_mols>  (225) 
A1775a

>  <ref_pdb>  (225) 
A1775a

>  <Quatassemblies upload name>  (225) 
nan

>  <inchikey>  (225) 
BLAHXQHYMANQBP-UHFFFAOYSA-N

>  <Experiment code>  (225) 
nan

>  <Quatassemblies alias>  (225) 
nan

>  <Crystalforms upload name>  (225) 
nan

>  <Centroid res>  (225) 
nan

>  <ConformerSites upload name>  (225) 
nan

>  <energy_score>  (225) 
-18.485797

>  <original SMILES>  (225) 
C=CCOc1ccc(C(C)=O)cc1

>  <exports>  (225) 
nan

>  <CrystalformSites upload name>  (225) 
nan

>  <name>  (225) 
BLAHXQHYMANQBP-UHFFFAOYSA-N

>  <HIPPO ID>  (225) 
141616

$$$$
XZJXCESWBMDSBO-UHFFFAOYSA-N
     RDKit          3D

 13 13  0  0  0  0  0  0  0  0999 V2000
    5.6344   11.9801   26.8896 C   0  0  0  0  0  0  0  0  0  0  0  0
    6.8765   12.2776   26.0741 C   0  0  0  0  0  0  0  0  0  0  0  0
    7.4487   11.0421   25.6665 O   0  0  0  0  0  0  0  0  0  0  0  0
    8.5423   11.1028   24.8526 C   0  0  0  0  0  0  0  0  0  0  0  0
    9.3043   12.2328   24.5640 C   0  0  0  0  0  0  0  0  0  0  0  0
   10.3801   12.1472   23.6715 C   0  0  0  0  0  0  0  0  0  0  0  0
   10.7031   10.9232   23.0807 C   0  0  0  0  0  0  0  0  0  0  0  0
   11.7596   10.7745   22.0507 C   0  0  0  0  0  0  0  0  0  0  0  0
   11.9024    9.6653   21.5356 O   0  0  0  0  0  0  0  0  0  0  0  0
   12.5805   11.9896   21.6274 C   0  0  0  0  0  0  0  0  0  0  0  0
   13.6522   11.6176   20.5942 C   0  0  0  0  0  0  0  0  0  0  0  0
    9.9684    9.7835   23.4115 C   0  0  0  0  0  0  0  0  0  0  0  0
    8.8933    9.8827   24.2827 C   0  0  0  0  0  0  0  0  0  0  0  0
  1  2  1  0
  2  3  1  0
  3  4  1  0
  4  5  2  0
  5  6  1  0
  6  7  2  0
  7  8  1  0
  8  9  2  0
  8 10  1  0
 10 11  1  0
  7 12  1  0
 12 13  2  0
 13  4  1  0
M  END
>  <Crystalforms alias>  (226) 
nan

>  <original ID>  (226) 
XZJXCESWBMDSBO-UHFFFAOYSA-N

>  <alias>  (226) 
None

>  <distance_score>  (226) 
0.365029

>  <CanonSites upload name>  (226) 
nan

>  <CanonSites alias>  (226) 
nan

>  <ConformerSites alias>  (226) 
nan

>  <observation_longname>  (226) 
nan

>  <CrystalformSites alias>  (226) 
nan

>  <tags>  (226) 
[]

>  <ref_mols>  (226) 
A1775a

>  <ref_pdb>  (226) 
A1775a

>  <Quatassemblies upload name>  (226) 
nan

>  <inchikey>  (226) 
XZJXCESWBMDSBO-UHFFFAOYSA-N

>  <Experiment code>  (226) 
nan

>  <Quatassemblies alias>  (226) 
nan

>  <Crystalforms upload name>  (226) 
nan

>  <Centroid res>  (226) 
nan

>  <ConformerSites upload name>  (226) 
nan

>  <energy_score>  (226) 
-16.042958

>  <original SMILES>  (226) 
CCOc1ccc(C(=O)CC)cc1

>  <exports>  (226) 
nan

>  <CrystalformSites upload name>  (226) 
nan

>  <name>  (226) 
XZJXCESWBMDSBO-UHFFFAOYSA-N

>  <HIPPO ID>  (226) 
141617

$$$$
PXFUIWJLRURUOG-QMMMGPOBSA-N
     RDKit          3D

 14 14  0  0  0  0  0  0  0  0999 V2000
   12.4359   12.1778   21.7873 C   0  0  0  0  0  0  0  0  0  0  0  0
   11.7283   10.8943   22.1391 C   0  0  0  0  0  0  0  0  0  0  0  0
   11.9793    9.8301   21.5759 O   0  0  0  0  0  0  0  0  0  0  0  0
   10.6633   10.9443   23.1617 C   0  0  0  0  0  0  0  0  0  0  0  0
    9.9502    9.7765   23.4110 C   0  0  0  0  0  0  0  0  0  0  0  0
    8.8418    9.8258   24.2411 C   0  0  0  0  0  0  0  0  0  0  0  0
    8.4427   11.0192   24.8407 C   0  0  0  0  0  0  0  0  0  0  0  0
    7.2738   10.9304   25.5323 O   0  0  0  0  0  0  0  0  0  0  0  0
    6.8266   12.0913   26.2282 C   0  0  0  0  0  0  0  0  0  0  0  0
    5.4551   11.7690   26.8191 C   0  0  2  0  0  0  0  0  0  0  0  0
    5.0404   12.7916   27.8610 C   0  0  0  0  0  0  0  0  0  0  0  0
    5.4726   10.4869   27.4422 O   0  0  0  0  0  0  0  0  0  0  0  0
    9.2065   12.1658   24.6608 C   0  0  0  0  0  0  0  0  0  0  0  0
   10.3124   12.1324   23.8122 C   0  0  0  0  0  0  0  0  0  0  0  0
  1  2  1  0
  2  3  2  0
  2  4  1  0
  4  5  2  0
  5  6  1  0
  6  7  2  0
  7  8  1  0
  8  9  1  0
  9 10  1  0
 10 11  1  1
 10 12  1  0
  7 13  1  0
 13 14  2  0
 14  4  1  0
M  END
>  <Crystalforms alias>  (227) 
nan

>  <original ID>  (227) 
PXFUIWJLRURUOG-QMMMGPOBSA-N

>  <alias>  (227) 
None

>  <distance_score>  (227) 
0.491132

>  <CanonSites upload name>  (227) 
nan

>  <CanonSites alias>  (227) 
nan

>  <ConformerSites alias>  (227) 
nan

>  <observation_longname>  (227) 
nan

>  <CrystalformSites alias>  (227) 
nan

>  <tags>  (227) 
[]

>  <ref_mols>  (227) 
A1775a

>  <ref_pdb>  (227) 
A1775a

>  <Quatassemblies upload name>  (227) 
nan

>  <inchikey>  (227) 
PXFUIWJLRURUOG-QMMMGPOBSA-N

>  <Experiment code>  (227) 
nan

>  <Quatassemblies alias>  (227) 
nan

>  <Crystalforms upload name>  (227) 
nan

>  <Centroid res>  (227) 
nan

>  <ConformerSites upload name>  (227) 
nan

>  <energy_score>  (227) 
-10.53104

>  <original SMILES>  (227) 
CC(=O)c1ccc(OC[C@H](C)O)cc1

>  <exports>  (227) 
nan

>  <CrystalformSites upload name>  (227) 
nan

>  <name>  (227) 
PXFUIWJLRURUOG-QMMMGPOBSA-N

>  <HIPPO ID>  (227) 
141813

$$$$
PXFUIWJLRURUOG-MRVPVSSYSA-N
     RDKit          3D

 14 14  0  0  0  0  0  0  0  0999 V2000
   12.4607   12.1311   21.7466 C   0  0  0  0  0  0  0  0  0  0  0  0
   11.7197   10.8697   22.1224 C   0  0  0  0  0  0  0  0  0  0  0  0
   11.9447    9.7887   21.5813 O   0  0  0  0  0  0  0  0  0  0  0  0
   10.6576   10.9659   23.1460 C   0  0  0  0  0  0  0  0  0  0  0  0
   10.3565   12.1771   23.7727 C   0  0  0  0  0  0  0  0  0  0  0  0
    9.2894   12.2567   24.6631 C   0  0  0  0  0  0  0  0  0  0  0  0
    8.5102   11.1322   24.9235 C   0  0  0  0  0  0  0  0  0  0  0  0
    7.4149   11.0922   25.7414 O   0  0  0  0  0  0  0  0  0  0  0  0
    7.0712   12.3271   26.3708 C   0  0  0  0  0  0  0  0  0  0  0  0
    5.9055   12.1286   27.3337 C   0  0  1  0  0  0  0  0  0  0  0  0
    4.6514   11.7009   26.6158 C   0  0  0  0  0  0  0  0  0  0  0  0
    6.2359   11.1314   28.2995 O   0  0  0  0  0  0  0  0  0  0  0  0
    8.8366    9.9214   24.3157 C   0  0  0  0  0  0  0  0  0  0  0  0
    9.9101    9.8273   23.4380 C   0  0  0  0  0  0  0  0  0  0  0  0
  1  2  1  0
  2  3  2  0
  2  4  1  0
  4  5  2  0
  5  6  1  0
  6  7  2  0
  7  8  1  0
  8  9  1  0
  9 10  1  0
 10 11  1  6
 10 12  1  0
  7 13  1  0
 13 14  2  0
 14  4  1  0
M  END
>  <Crystalforms alias>  (228) 
nan

>  <original ID>  (228) 
PXFUIWJLRURUOG-MRVPVSSYSA-N

>  <alias>  (228) 
None

>  <distance_score>  (228) 
0.516825

>  <CanonSites upload name>  (228) 
nan

>  <CanonSites alias>  (228) 
nan

>  <ConformerSites alias>  (228) 
nan

>  <observation_longname>  (228) 
nan

>  <CrystalformSites alias>  (228) 
nan

>  <tags>  (228) 
[]

>  <ref_mols>  (228) 
A1775a

>  <ref_pdb>  (228) 
A1775a

>  <Quatassemblies upload name>  (228) 
nan

>  <inchikey>  (228) 
PXFUIWJLRURUOG-MRVPVSSYSA-N

>  <Experiment code>  (228) 
nan

>  <Quatassemblies alias>  (228) 
nan

>  <Crystalforms upload name>  (228) 
nan

>  <Centroid res>  (228) 
nan

>  <ConformerSites upload name>  (228) 
nan

>  <energy_score>  (228) 
-15.000771

>  <original SMILES>  (228) 
CC(=O)c1ccc(OC[C@@H](C)O)cc1

>  <exports>  (228) 
nan

>  <CrystalformSites upload name>  (228) 
nan

>  <name>  (228) 
PXFUIWJLRURUOG-MRVPVSSYSA-N

>  <HIPPO ID>  (228) 
141814

$$$$
DIBGMIDKOYXIGL-UHFFFAOYSA-N
     RDKit          3D

 14 15  0  0  0  0  0  0  0  0999 V2000
    4.8659   11.5198   26.6191 C   0  0  0  0  0  0  0  0  0  0  0  0
    6.1122   12.1401   27.2066 C   0  0  0  0  0  0  0  0  0  0  0  0
    7.1881   12.3487   26.1502 C   0  0  0  0  0  0  0  0  0  0  0  0
    7.6070   11.0886   25.6432 O   0  0  0  0  0  0  0  0  0  0  0  0
    8.6597   11.0951   24.7699 C   0  0  0  0  0  0  0  0  0  0  0  0
    8.9679    9.8280   24.2439 C   0  0  0  0  0  0  0  0  0  0  0  0
   10.0184    9.6448   23.3558 C   0  0  0  0  0  0  0  0  0  0  0  0
   10.7221   10.7699   22.9961 C   0  0  0  0  0  0  0  0  0  0  0  0
   10.4400   12.0385   23.4812 C   0  0  0  0  0  0  0  0  0  0  0  0
    9.4061   12.2146   24.3870 C   0  0  0  0  0  0  0  0  0  0  0  0
   11.3212   13.0846   22.8732 C   0  0  0  0  0  0  0  0  0  0  0  0
   12.2575   12.3131   21.9512 C   0  0  0  0  0  0  0  0  0  0  0  0
   11.7965   10.8737   22.0334 C   0  0  0  0  0  0  0  0  0  0  0  0
   12.2026    9.9170   21.3980 O   0  0  0  0  0  0  0  0  0  0  0  0
  1  2  1  0
  2  3  1  0
  3  4  1  0
  4  5  1  0
  5  6  2  0
  6  7  1  0
  7  8  2  0
  8  9  1  0
  9 10  2  0
  9 11  1  0
 11 12  1  0
 12 13  1  0
 13 14  2  0
 10  5  1  0
 13  8  1  0
M  END
>  <Crystalforms alias>  (229) 
nan

>  <original ID>  (229) 
DIBGMIDKOYXIGL-UHFFFAOYSA-N

>  <alias>  (229) 
None

>  <distance_score>  (229) 
1.123353

>  <CanonSites upload name>  (229) 
nan

>  <CanonSites alias>  (229) 
nan

>  <ConformerSites alias>  (229) 
nan

>  <observation_longname>  (229) 
nan

>  <CrystalformSites alias>  (229) 
nan

>  <tags>  (229) 
[]

>  <ref_mols>  (229) 
A1775a

>  <ref_pdb>  (229) 
A1775a

>  <Quatassemblies upload name>  (229) 
nan

>  <inchikey>  (229) 
DIBGMIDKOYXIGL-UHFFFAOYSA-N

>  <Experiment code>  (229) 
nan

>  <Quatassemblies alias>  (229) 
nan

>  <Crystalforms upload name>  (229) 
nan

>  <Centroid res>  (229) 
nan

>  <ConformerSites upload name>  (229) 
nan

>  <energy_score>  (229) 
-19.637886

>  <original SMILES>  (229) 
CCCOc1ccc2c(c1)CCC2=O

>  <exports>  (229) 
nan

>  <CrystalformSites upload name>  (229) 
nan

>  <name>  (229) 
DIBGMIDKOYXIGL-UHFFFAOYSA-N

>  <HIPPO ID>  (229) 
141882

$$$$
JODWHHMIVWXMRT-UHFFFAOYSA-N
     RDKit          3D

 14 14  0  0  0  0  0  0  0  0999 V2000
    5.6133   11.0216   27.9855 C   0  0  0  0  0  0  0  0  0  0  0  0
    5.4995   12.0120   26.8376 C   0  0  0  0  0  0  0  0  0  0  0  0
    6.8300   12.2643   26.1395 C   0  0  0  0  0  0  0  0  0  0  0  0
    7.3615   11.0303   25.6759 O   0  0  0  0  0  0  0  0  0  0  0  0
    8.4761   11.0875   24.8927 C   0  0  0  0  0  0  0  0  0  0  0  0
    9.2532   12.2133   24.6370 C   0  0  0  0  0  0  0  0  0  0  0  0
   10.3334   12.1324   23.7529 C   0  0  0  0  0  0  0  0  0  0  0  0
   10.6476   10.9152   23.1396 C   0  0  0  0  0  0  0  0  0  0  0  0
   11.7063   10.7810   22.1120 C   0  0  0  0  0  0  0  0  0  0  0  0
   11.8774    9.6689   21.6126 O   0  0  0  0  0  0  0  0  0  0  0  0
   12.4757   12.0260   21.7086 C   0  0  0  0  0  0  0  0  0  0  0  0
   13.7040   11.6020   20.4885 Cl  0  0  0  0  0  0  0  0  0  0  0  0
    9.9056    9.7757   23.4471 C   0  0  0  0  0  0  0  0  0  0  0  0
    8.8249    9.8727   24.3102 C   0  0  0  0  0  0  0  0  0  0  0  0
  1  2  1  0
  2  3  1  0
  3  4  1  0
  4  5  1  0
  5  6  2  0
  6  7  1  0
  7  8  2  0
  8  9  1  0
  9 10  2  0
  9 11  1  0
 11 12  1  0
  8 13  1  0
 13 14  2  0
 14  5  1  0
M  END
>  <Crystalforms alias>  (230) 
nan

>  <original ID>  (230) 
JODWHHMIVWXMRT-UHFFFAOYSA-N

>  <alias>  (230) 
None

>  <distance_score>  (230) 
0.391381

>  <CanonSites upload name>  (230) 
nan

>  <CanonSites alias>  (230) 
nan

>  <ConformerSites alias>  (230) 
nan

>  <observation_longname>  (230) 
nan

>  <CrystalformSites alias>  (230) 
nan

>  <tags>  (230) 
[]

>  <ref_mols>  (230) 
A1775a

>  <ref_pdb>  (230) 
A1775a

>  <Quatassemblies upload name>  (230) 
nan

>  <inchikey>  (230) 
JODWHHMIVWXMRT-UHFFFAOYSA-N

>  <Experiment code>  (230) 
nan

>  <Quatassemblies alias>  (230) 
nan

>  <Crystalforms upload name>  (230) 
nan

>  <Centroid res>  (230) 
nan

>  <ConformerSites upload name>  (230) 
nan

>  <energy_score>  (230) 
-6.389007

>  <original SMILES>  (230) 
CCCOc1ccc(C(=O)CCl)cc1

>  <exports>  (230) 
nan

>  <CrystalformSites upload name>  (230) 
nan

>  <name>  (230) 
JODWHHMIVWXMRT-UHFFFAOYSA-N

>  <HIPPO ID>  (230) 
141886

$$$$
TULXEKSOMKGJTK-UHFFFAOYSA-N
     RDKit          3D

 14 14  0  0  0  0  0  0  0  0999 V2000
    4.7522   11.6114   26.6569 C   0  0  0  0  0  0  0  0  0  0  0  0
    6.0046   12.1465   27.3084 C   0  0  0  0  0  0  0  0  0  0  0  0
    7.1147   12.3547   26.2920 C   0  0  0  0  0  0  0  0  0  0  0  0
    7.5148   11.1047   25.7425 O   0  0  0  0  0  0  0  0  0  0  0  0
    8.5787   11.1401   24.8856 C   0  0  0  0  0  0  0  0  0  0  0  0
    8.8957    9.9186   24.2950 C   0  0  0  0  0  0  0  0  0  0  0  0
    9.9547    9.8088   23.4014 C   0  0  0  0  0  0  0  0  0  0  0  0
   10.6977   10.9416   23.0723 C   0  0  0  0  0  0  0  0  0  0  0  0
   11.7584   10.8127   22.0468 C   0  0  0  0  0  0  0  0  0  0  0  0
   11.9567    9.7160   21.5205 O   0  0  0  0  0  0  0  0  0  0  0  0
   12.5448   12.0683   21.6601 C   0  0  0  0  0  0  0  0  0  0  0  0
   13.5823   11.7414   20.6663 N   0  0  0  0  0  0  0  0  0  0  0  0
   10.3959   12.1676   23.6706 C   0  0  0  0  0  0  0  0  0  0  0  0
    9.3424   12.2633   24.5783 C   0  0  0  0  0  0  0  0  0  0  0  0
  1  2  1  0
  2  3  1  0
  3  4  1  0
  4  5  1  0
  5  6  2  0
  6  7  1  0
  7  8  2  0
  8  9  1  0
  9 10  2  0
  9 11  1  0
 11 12  1  0
  8 13  1  0
 13 14  2  0
 14  5  1  0
M  END
>  <Crystalforms alias>  (231) 
nan

>  <original ID>  (231) 
TULXEKSOMKGJTK-UHFFFAOYSA-N

>  <alias>  (231) 
None

>  <distance_score>  (231) 
0.450459

>  <CanonSites upload name>  (231) 
nan

>  <CanonSites alias>  (231) 
nan

>  <ConformerSites alias>  (231) 
nan

>  <observation_longname>  (231) 
nan

>  <CrystalformSites alias>  (231) 
nan

>  <tags>  (231) 
[]

>  <ref_mols>  (231) 
A1775a

>  <ref_pdb>  (231) 
A1775a

>  <Quatassemblies upload name>  (231) 
nan

>  <inchikey>  (231) 
TULXEKSOMKGJTK-UHFFFAOYSA-N

>  <Experiment code>  (231) 
nan

>  <Quatassemblies alias>  (231) 
nan

>  <Crystalforms upload name>  (231) 
nan

>  <Centroid res>  (231) 
nan

>  <ConformerSites upload name>  (231) 
nan

>  <energy_score>  (231) 
-26.567062

>  <original SMILES>  (231) 
CCCOc1ccc(C(=O)CN)cc1

>  <exports>  (231) 
nan

>  <CrystalformSites upload name>  (231) 
nan

>  <name>  (231) 
TULXEKSOMKGJTK-UHFFFAOYSA-N

>  <HIPPO ID>  (231) 
141921

$$$$
WRMLGNJEOPKSSD-UHFFFAOYSA-N
     RDKit          3D

 14 14  0  0  0  0  0  0  0  0999 V2000
    5.6359   11.0028   27.9111 C   0  0  0  0  0  0  0  0  0  0  0  0
    5.5415   12.0134   26.7794 C   0  0  0  0  0  0  0  0  0  0  0  0
    6.8785   12.2670   26.0925 C   0  0  0  0  0  0  0  0  0  0  0  0
    7.4177   11.0358   25.6310 O   0  0  0  0  0  0  0  0  0  0  0  0
    8.5308   11.0945   24.8447 C   0  0  0  0  0  0  0  0  0  0  0  0
    9.3019   12.2222   24.5726 C   0  0  0  0  0  0  0  0  0  0  0  0
   10.3822   12.1382   23.6850 C   0  0  0  0  0  0  0  0  0  0  0  0
   10.7023   10.9171   23.0860 C   0  0  0  0  0  0  0  0  0  0  0  0
   11.7582   10.7717   22.0546 C   0  0  0  0  0  0  0  0  0  0  0  0
   11.9066    9.6629   21.5402 O   0  0  0  0  0  0  0  0  0  0  0  0
   12.5758   11.9890   21.6311 C   0  0  0  0  0  0  0  0  0  0  0  0
   13.6474   11.6194   20.5967 C   0  0  0  0  0  0  0  0  0  0  0  0
    9.9645    9.7774   23.4087 C   0  0  0  0  0  0  0  0  0  0  0  0
    8.8841    9.8757   24.2734 C   0  0  0  0  0  0  0  0  0  0  0  0
  1  2  1  0
  2  3  1  0
  3  4  1  0
  4  5  1  0
  5  6  2  0
  6  7  1  0
  7  8  2  0
  8  9  1  0
  9 10  2  0
  9 11  1  0
 11 12  1  0
  8 13  1  0
 13 14  2  0
 14  5  1  0
M  END
>  <Crystalforms alias>  (232) 
nan

>  <original ID>  (232) 
WRMLGNJEOPKSSD-UHFFFAOYSA-N

>  <alias>  (232) 
None

>  <distance_score>  (232) 
0.357255

>  <CanonSites upload name>  (232) 
nan

>  <CanonSites alias>  (232) 
nan

>  <ConformerSites alias>  (232) 
nan

>  <observation_longname>  (232) 
nan

>  <CrystalformSites alias>  (232) 
nan

>  <tags>  (232) 
[]

>  <ref_mols>  (232) 
A1775a

>  <ref_pdb>  (232) 
A1775a

>  <Quatassemblies upload name>  (232) 
nan

>  <inchikey>  (232) 
WRMLGNJEOPKSSD-UHFFFAOYSA-N

>  <Experiment code>  (232) 
nan

>  <Quatassemblies alias>  (232) 
nan

>  <Crystalforms upload name>  (232) 
nan

>  <Centroid res>  (232) 
nan

>  <ConformerSites upload name>  (232) 
nan

>  <energy_score>  (232) 
-16.122968

>  <original SMILES>  (232) 
CCCOc1ccc(C(=O)CC)cc1

>  <exports>  (232) 
nan

>  <CrystalformSites upload name>  (232) 
nan

>  <name>  (232) 
WRMLGNJEOPKSSD-UHFFFAOYSA-N

>  <HIPPO ID>  (232) 
141922

$$$$
OBUGAMBYISEWLC-UHFFFAOYSA-N
     RDKit          3D

 14 14  0  0  0  0  0  0  0  0999 V2000
    5.5562   11.9456   26.9331 C   0  0  0  0  0  0  0  0  0  0  0  0
    6.8196   12.2528   26.1564 C   0  0  0  0  0  0  0  0  0  0  0  0
    7.3815   11.0243   25.7131 O   0  0  0  0  0  0  0  0  0  0  0  0
    8.4878   11.0982   24.9178 C   0  0  0  0  0  0  0  0  0  0  0  0
    8.8329    9.8989   24.3047 C   0  0  0  0  0  0  0  0  0  0  0  0
    9.9149    9.8243   23.4394 C   0  0  0  0  0  0  0  0  0  0  0  0
   10.6739   10.9654   23.1622 C   0  0  0  0  0  0  0  0  0  0  0  0
   11.7246   10.8184   22.1219 C   0  0  0  0  0  0  0  0  0  0  0  0
   11.8743    9.6995   21.6245 O   0  0  0  0  0  0  0  0  0  0  0  0
   12.5103   12.0423   21.6887 C   0  0  0  0  0  0  0  0  0  0  0  0
   13.7220   11.5857   20.4602 Cl  0  0  0  0  0  0  0  0  0  0  0  0
   10.3603   12.1601   23.8199 C   0  0  0  0  0  0  0  0  0  0  0  0
   11.1090   13.2876   23.6339 O   0  0  0  0  0  0  0  0  0  0  0  0
    9.2722   12.2266   24.6966 C   0  0  0  0  0  0  0  0  0  0  0  0
  1  2  1  0
  2  3  1  0
  3  4  1  0
  4  5  2  0
  5  6  1  0
  6  7  2  0
  7  8  1  0
  8  9  2  0
  8 10  1  0
 10 11  1  0
  7 12  1  0
 12 13  1  0
 12 14  2  0
 14  4  1  0
M  END
>  <Crystalforms alias>  (233) 
nan

>  <original ID>  (233) 
OBUGAMBYISEWLC-UHFFFAOYSA-N

>  <alias>  (233) 
None

>  <distance_score>  (233) 
0.407729

>  <CanonSites upload name>  (233) 
nan

>  <CanonSites alias>  (233) 
nan

>  <ConformerSites alias>  (233) 
nan

>  <observation_longname>  (233) 
nan

>  <CrystalformSites alias>  (233) 
nan

>  <tags>  (233) 
[]

>  <ref_mols>  (233) 
A1775a

>  <ref_pdb>  (233) 
A1775a

>  <Quatassemblies upload name>  (233) 
nan

>  <inchikey>  (233) 
OBUGAMBYISEWLC-UHFFFAOYSA-N

>  <Experiment code>  (233) 
nan

>  <Quatassemblies alias>  (233) 
nan

>  <Crystalforms upload name>  (233) 
nan

>  <Centroid res>  (233) 
nan

>  <ConformerSites upload name>  (233) 
nan

>  <energy_score>  (233) 
-23.989724

>  <original SMILES>  (233) 
CCOc1ccc(C(=O)CCl)c(O)c1

>  <exports>  (233) 
nan

>  <CrystalformSites upload name>  (233) 
nan

>  <name>  (233) 
OBUGAMBYISEWLC-UHFFFAOYSA-N

>  <HIPPO ID>  (233) 
141950

$$$$
WWJWIBDPQFFRRS-UHFFFAOYSA-N
     RDKit          3D

 14 14  0  0  0  0  0  0  0  0999 V2000
    9.8507    8.1660   22.3099 C   0  0  0  0  0  0  0  0  0  0  0  0
    9.4598    8.5506   23.6780 C   0  0  0  0  0  0  0  0  0  0  0  0
   10.4167    9.4847   24.1455 O   0  0  0  0  0  0  0  0  0  0  0  0
    9.9544   10.7428   23.9622 C   0  0  0  0  0  0  0  0  0  0  0  0
    8.8618   11.1380   24.7351 C   0  0  0  0  0  0  0  0  0  0  0  0
    8.3382   12.3929   24.5601 C   0  0  0  0  0  0  0  0  0  0  0  0
    7.2359   12.7820   25.2488 O   0  0  0  0  0  0  0  0  0  0  0  0
    8.9266   13.2705   23.6631 C   0  0  0  0  0  0  0  0  0  0  0  0
   10.0538   12.8901   22.9365 C   0  0  0  0  0  0  0  0  0  0  0  0
   10.5778   11.6032   23.0627 C   0  0  0  0  0  0  0  0  0  0  0  0
   11.6968   11.1472   22.1794 C   0  0  0  0  0  0  0  0  0  0  0  0
   11.8643    9.9638   21.9021 O   0  0  0  0  0  0  0  0  0  0  0  0
   12.5922   12.2218   21.6354 C   0  0  0  0  0  0  0  0  0  0  0  0
   13.7728   11.5603   20.4793 Cl  0  0  0  0  0  0  0  0  0  0  0  0
  1  2  1  0
  2  3  1  0
  3  4  1  0
  4  5  2  0
  5  6  1  0
  6  7  1  0
  6  8  2  0
  8  9  1  0
  9 10  2  0
 10 11  1  0
 11 12  2  0
 11 13  1  0
 13 14  1  0
 10  4  1  0
M  END
>  <Crystalforms alias>  (234) 
nan

>  <original ID>  (234) 
WWJWIBDPQFFRRS-UHFFFAOYSA-N

>  <alias>  (234) 
None

>  <distance_score>  (234) 
1.276617

>  <CanonSites upload name>  (234) 
nan

>  <CanonSites alias>  (234) 
nan

>  <ConformerSites alias>  (234) 
nan

>  <observation_longname>  (234) 
nan

>  <CrystalformSites alias>  (234) 
nan

>  <tags>  (234) 
[]

>  <ref_mols>  (234) 
A1775a

>  <ref_pdb>  (234) 
A1775a

>  <Quatassemblies upload name>  (234) 
nan

>  <inchikey>  (234) 
WWJWIBDPQFFRRS-UHFFFAOYSA-N

>  <Experiment code>  (234) 
nan

>  <Quatassemblies alias>  (234) 
nan

>  <Crystalforms upload name>  (234) 
nan

>  <Centroid res>  (234) 
nan

>  <ConformerSites upload name>  (234) 
nan

>  <energy_score>  (234) 
-2.604023

>  <original SMILES>  (234) 
CCOc1cc(O)ccc1C(=O)CCl

>  <exports>  (234) 
nan

>  <CrystalformSites upload name>  (234) 
nan

>  <name>  (234) 
WWJWIBDPQFFRRS-UHFFFAOYSA-N

>  <HIPPO ID>  (234) 
141951

$$$$
POGPSKUWSGOZRN-UHFFFAOYSA-N
     RDKit          3D

 14 14  0  0  0  0  0  0  0  0999 V2000
    5.4560   11.8853   27.0757 C   0  0  0  0  0  0  0  0  0  0  0  0
    6.6021   12.1975   26.1382 C   0  0  0  0  0  0  0  0  0  0  0  0
    7.1607   10.9659   25.6923 O   0  0  0  0  0  0  0  0  0  0  0  0
    8.2303   11.0492   24.8516 C   0  0  0  0  0  0  0  0  0  0  0  0
    8.7306    9.8291   24.4091 C   0  0  0  0  0  0  0  0  0  0  0  0
    9.8374    9.7581   23.5773 C   0  0  0  0  0  0  0  0  0  0  0  0
   10.4231   10.9356   23.1255 C   0  0  0  0  0  0  0  0  0  0  0  0
   11.5775   10.8271   22.2083 C   0  0  0  0  0  0  0  0  0  0  0  0
   11.8093    9.7140   21.7334 O   0  0  0  0  0  0  0  0  0  0  0  0
   12.3719   12.0886   21.8316 C   0  0  0  0  0  0  0  0  0  0  0  0
   13.4884   11.7101   20.8222 C   0  0  0  0  0  0  0  0  0  0  0  0
   12.7800   12.9610   23.0305 C   0  0  0  0  0  0  0  0  0  0  0  0
    9.8759   12.1638   23.4996 C   0  0  0  0  0  0  0  0  0  0  0  0
    8.8129   12.2177   24.3917 C   0  0  0  0  0  0  0  0  0  0  0  0
  1  2  1  0
  2  3  1  0
  3  4  1  0
  4  5  2  0
  5  6  1  0
  6  7  2  0
  7  8  1  0
  8  9  2  0
  8 10  1  0
 10 11  1  0
 10 12  1  0
  7 13  1  0
 13 14  2  0
 14  4  1  0
M  END
>  <Crystalforms alias>  (235) 
nan

>  <original ID>  (235) 
POGPSKUWSGOZRN-UHFFFAOYSA-N

>  <alias>  (235) 
None

>  <distance_score>  (235) 
0.573866

>  <CanonSites upload name>  (235) 
nan

>  <CanonSites alias>  (235) 
nan

>  <ConformerSites alias>  (235) 
nan

>  <observation_longname>  (235) 
nan

>  <CrystalformSites alias>  (235) 
nan

>  <tags>  (235) 
[]

>  <ref_mols>  (235) 
A1775a

>  <ref_pdb>  (235) 
A1775a

>  <Quatassemblies upload name>  (235) 
nan

>  <inchikey>  (235) 
POGPSKUWSGOZRN-UHFFFAOYSA-N

>  <Experiment code>  (235) 
nan

>  <Quatassemblies alias>  (235) 
nan

>  <Crystalforms upload name>  (235) 
nan

>  <Centroid res>  (235) 
nan

>  <ConformerSites upload name>  (235) 
nan

>  <energy_score>  (235) 
-13.574868

>  <original SMILES>  (235) 
CCOc1ccc(C(=O)C(C)C)cc1

>  <exports>  (235) 
nan

>  <CrystalformSites upload name>  (235) 
nan

>  <name>  (235) 
POGPSKUWSGOZRN-UHFFFAOYSA-N

>  <HIPPO ID>  (235) 
141994

$$$$
KFGKJJVXITYMOR-UHFFFAOYSA-N
     RDKit          3D

 14 14  0  0  0  0  0  0  0  0999 V2000
    7.0982   12.5198   27.7613 C   0  0  0  0  0  0  0  0  0  0  0  0
    6.6939   12.2569   26.3195 C   0  0  0  0  0  0  0  0  0  0  0  0
    5.1900   12.0512   26.2735 C   0  0  0  0  0  0  0  0  0  0  0  0
    7.3188   11.0640   25.8467 O   0  0  0  0  0  0  0  0  0  0  0  0
    8.4074   11.1396   25.0290 C   0  0  0  0  0  0  0  0  0  0  0  0
    9.2034   12.2543   24.7990 C   0  0  0  0  0  0  0  0  0  0  0  0
   10.2697   12.1804   23.8934 C   0  0  0  0  0  0  0  0  0  0  0  0
   10.5606   10.9792   23.2347 C   0  0  0  0  0  0  0  0  0  0  0  0
   11.6233   10.8643   22.2059 C   0  0  0  0  0  0  0  0  0  0  0  0
   11.8360    9.7720   21.6740 O   0  0  0  0  0  0  0  0  0  0  0  0
   12.3954   12.1296   21.8270 C   0  0  0  0  0  0  0  0  0  0  0  0
   13.4040   11.8137   20.8001 N   0  0  0  0  0  0  0  0  0  0  0  0
    9.8032    9.8461   23.5140 C   0  0  0  0  0  0  0  0  0  0  0  0
    8.7342    9.9392   24.3974 C   0  0  0  0  0  0  0  0  0  0  0  0
  1  2  1  0
  2  3  1  0
  2  4  1  0
  4  5  1  0
  5  6  2  0
  6  7  1  0
  7  8  2  0
  8  9  1  0
  9 10  2  0
  9 11  1  0
 11 12  1  0
  8 13  1  0
 13 14  2  0
 14  5  1  0
M  END
>  <Crystalforms alias>  (236) 
nan

>  <original ID>  (236) 
KFGKJJVXITYMOR-UHFFFAOYSA-N

>  <alias>  (236) 
None

>  <distance_score>  (236) 
0.521897

>  <CanonSites upload name>  (236) 
nan

>  <CanonSites alias>  (236) 
nan

>  <ConformerSites alias>  (236) 
nan

>  <observation_longname>  (236) 
nan

>  <CrystalformSites alias>  (236) 
nan

>  <tags>  (236) 
[]

>  <ref_mols>  (236) 
A1775a

>  <ref_pdb>  (236) 
A1775a

>  <Quatassemblies upload name>  (236) 
nan

>  <inchikey>  (236) 
KFGKJJVXITYMOR-UHFFFAOYSA-N

>  <Experiment code>  (236) 
nan

>  <Quatassemblies alias>  (236) 
nan

>  <Crystalforms upload name>  (236) 
nan

>  <Centroid res>  (236) 
nan

>  <ConformerSites upload name>  (236) 
nan

>  <energy_score>  (236) 
-31.879369

>  <original SMILES>  (236) 
CC(C)Oc1ccc(C(=O)CN)cc1

>  <exports>  (236) 
nan

>  <CrystalformSites upload name>  (236) 
nan

>  <name>  (236) 
KFGKJJVXITYMOR-UHFFFAOYSA-N

>  <HIPPO ID>  (236) 
142064

$$$$
UQVJVUWEYMWXOL-UHFFFAOYSA-N
     RDKit          3D

 14 14  0  0  0  0  0  0  0  0999 V2000
   13.5631   11.6280   20.6612 C   0  0  0  0  0  0  0  0  0  0  0  0
   12.5034   12.0119   21.7063 C   0  0  0  0  0  0  0  0  0  0  0  0
   11.6758   10.8030   22.1378 C   0  0  0  0  0  0  0  0  0  0  0  0
   11.8140    9.6912   21.6251 O   0  0  0  0  0  0  0  0  0  0  0  0
   10.6226   10.9634   23.1752 C   0  0  0  0  0  0  0  0  0  0  0  0
   10.3393   12.1764   23.8114 C   0  0  0  0  0  0  0  0  0  0  0  0
    9.2766   12.2678   24.7278 C   0  0  0  0  0  0  0  0  0  0  0  0
    8.4784   11.1584   24.9888 C   0  0  0  0  0  0  0  0  0  0  0  0
    7.4033   11.0854   25.8246 O   0  0  0  0  0  0  0  0  0  0  0  0
    6.7598   12.2713   26.2852 C   0  0  0  0  0  0  0  0  0  0  0  0
    5.2583   12.0658   26.1869 C   0  0  0  0  0  0  0  0  0  0  0  0
    7.1135   12.5204   27.7426 C   0  0  0  0  0  0  0  0  0  0  0  0
    8.7923    9.9490   24.3715 C   0  0  0  0  0  0  0  0  0  0  0  0
    9.8550    9.8406   23.4826 C   0  0  0  0  0  0  0  0  0  0  0  0
  1  2  1  0
  2  3  1  0
  3  4  2  0
  3  5  1  0
  5  6  2  0
  6  7  1  0
  7  8  2  0
  8  9  1  0
  9 10  1  0
 10 11  1  0
 10 12  1  0
  8 13  1  0
 13 14  2  0
 14  5  1  0
M  END
>  <Crystalforms alias>  (237) 
nan

>  <original ID>  (237) 
UQVJVUWEYMWXOL-UHFFFAOYSA-N

>  <alias>  (237) 
None

>  <distance_score>  (237) 
0.451397

>  <CanonSites upload name>  (237) 
nan

>  <CanonSites alias>  (237) 
nan

>  <ConformerSites alias>  (237) 
nan

>  <observation_longname>  (237) 
nan

>  <CrystalformSites alias>  (237) 
nan

>  <tags>  (237) 
[]

>  <ref_mols>  (237) 
A1775a

>  <ref_pdb>  (237) 
A1775a

>  <Quatassemblies upload name>  (237) 
nan

>  <inchikey>  (237) 
UQVJVUWEYMWXOL-UHFFFAOYSA-N

>  <Experiment code>  (237) 
nan

>  <Quatassemblies alias>  (237) 
nan

>  <Crystalforms upload name>  (237) 
nan

>  <Centroid res>  (237) 
nan

>  <ConformerSites upload name>  (237) 
nan

>  <energy_score>  (237) 
-11.471348

>  <original SMILES>  (237) 
CCC(=O)c1ccc(OC(C)C)cc1

>  <exports>  (237) 
nan

>  <CrystalformSites upload name>  (237) 
nan

>  <name>  (237) 
UQVJVUWEYMWXOL-UHFFFAOYSA-N

>  <HIPPO ID>  (237) 
142065

$$$$
KLEUQKRCMYGEBO-UHFFFAOYSA-N
     RDKit          3D

 14 14  0  0  0  0  0  0  0  0999 V2000
    5.2134   12.0656   26.2458 C   0  0  0  0  0  0  0  0  0  0  0  0
    6.7168   12.2700   26.3126 C   0  0  0  0  0  0  0  0  0  0  0  0
    7.1028   12.5256   27.7607 C   0  0  0  0  0  0  0  0  0  0  0  0
    7.3473   11.0795   25.8453 O   0  0  0  0  0  0  0  0  0  0  0  0
    8.4287   11.1500   25.0185 C   0  0  0  0  0  0  0  0  0  0  0  0
    9.2289   12.2588   24.7686 C   0  0  0  0  0  0  0  0  0  0  0  0
   10.2935   12.1698   23.8578 C   0  0  0  0  0  0  0  0  0  0  0  0
   10.5771   10.9585   23.2155 C   0  0  0  0  0  0  0  0  0  0  0  0
   11.6350   10.8072   22.1834 C   0  0  0  0  0  0  0  0  0  0  0  0
   11.7994    9.6898   21.6924 O   0  0  0  0  0  0  0  0  0  0  0  0
   12.4144   12.0433   21.7686 C   0  0  0  0  0  0  0  0  0  0  0  0
   13.6331   11.6034   20.5395 Cl  0  0  0  0  0  0  0  0  0  0  0  0
    9.8099    9.8346   23.5140 C   0  0  0  0  0  0  0  0  0  0  0  0
    8.7448    9.9424   24.3987 C   0  0  0  0  0  0  0  0  0  0  0  0
  1  2  1  0
  2  3  1  0
  2  4  1  0
  4  5  1  0
  5  6  2  0
  6  7  1  0
  7  8  2  0
  8  9  1  0
  9 10  2  0
  9 11  1  0
 11 12  1  0
  8 13  1  0
 13 14  2  0
 14  5  1  0
M  END
>  <Crystalforms alias>  (238) 
nan

>  <original ID>  (238) 
KLEUQKRCMYGEBO-UHFFFAOYSA-N

>  <alias>  (238) 
None

>  <distance_score>  (238) 
0.481709

>  <CanonSites upload name>  (238) 
nan

>  <CanonSites alias>  (238) 
nan

>  <ConformerSites alias>  (238) 
nan

>  <observation_longname>  (238) 
nan

>  <CrystalformSites alias>  (238) 
nan

>  <tags>  (238) 
[]

>  <ref_mols>  (238) 
A1775a

>  <ref_pdb>  (238) 
A1775a

>  <Quatassemblies upload name>  (238) 
nan

>  <inchikey>  (238) 
KLEUQKRCMYGEBO-UHFFFAOYSA-N

>  <Experiment code>  (238) 
nan

>  <Quatassemblies alias>  (238) 
nan

>  <Crystalforms upload name>  (238) 
nan

>  <Centroid res>  (238) 
nan

>  <ConformerSites upload name>  (238) 
nan

>  <energy_score>  (238) 
-16.289015

>  <original SMILES>  (238) 
CC(C)Oc1ccc(C(=O)CCl)cc1

>  <exports>  (238) 
nan

>  <CrystalformSites upload name>  (238) 
nan

>  <name>  (238) 
KLEUQKRCMYGEBO-UHFFFAOYSA-N

>  <HIPPO ID>  (238) 
142070

$$$$
NLUPNAKVXJFJDD-UHFFFAOYSA-N
     RDKit          3D

 14 15  0  0  0  0  0  0  0  0999 V2000
    6.1050   12.9204   24.9154 C   0  0  0  0  0  0  0  0  0  0  0  0
    6.8932   12.2421   26.0272 C   0  0  0  0  0  0  0  0  0  0  0  0
    5.9372   11.8844   27.1617 C   0  0  0  0  0  0  0  0  0  0  0  0
    7.4706   11.0186   25.5746 O   0  0  0  0  0  0  0  0  0  0  0  0
    8.5835   11.0519   24.7821 C   0  0  0  0  0  0  0  0  0  0  0  0
    8.9172    9.7993   24.2344 C   0  0  0  0  0  0  0  0  0  0  0  0
    9.9867    9.6414   23.3645 C   0  0  0  0  0  0  0  0  0  0  0  0
   10.6942   10.7768   23.0518 C   0  0  0  0  0  0  0  0  0  0  0  0
   10.4122   12.0256   23.5874 C   0  0  0  0  0  0  0  0  0  0  0  0
    9.3573   12.1746   24.4765 C   0  0  0  0  0  0  0  0  0  0  0  0
   11.3285   13.0832   23.0568 C   0  0  0  0  0  0  0  0  0  0  0  0
   12.2067   12.3628   22.0400 C   0  0  0  0  0  0  0  0  0  0  0  0
   11.7655   10.9151   22.0892 C   0  0  0  0  0  0  0  0  0  0  0  0
   12.1810    9.9780   21.4298 O   0  0  0  0  0  0  0  0  0  0  0  0
  1  2  1  0
  2  3  1  0
  2  4  1  0
  4  5  1  0
  5  6  2  0
  6  7  1  0
  7  8  2  0
  8  9  1  0
  9 10  2  0
  9 11  1  0
 11 12  1  0
 12 13  1  0
 13 14  2  0
 10  5  1  0
 13  8  1  0
M  END
>  <Crystalforms alias>  (239) 
nan

>  <original ID>  (239) 
NLUPNAKVXJFJDD-UHFFFAOYSA-N

>  <alias>  (239) 
None

>  <distance_score>  (239) 
1.146766

>  <CanonSites upload name>  (239) 
nan

>  <CanonSites alias>  (239) 
nan

>  <ConformerSites alias>  (239) 
nan

>  <observation_longname>  (239) 
nan

>  <CrystalformSites alias>  (239) 
nan

>  <tags>  (239) 
[]

>  <ref_mols>  (239) 
A1775a

>  <ref_pdb>  (239) 
A1775a

>  <Quatassemblies upload name>  (239) 
nan

>  <inchikey>  (239) 
NLUPNAKVXJFJDD-UHFFFAOYSA-N

>  <Experiment code>  (239) 
nan

>  <Quatassemblies alias>  (239) 
nan

>  <Crystalforms upload name>  (239) 
nan

>  <Centroid res>  (239) 
nan

>  <ConformerSites upload name>  (239) 
nan

>  <energy_score>  (239) 
-21.008969

>  <original SMILES>  (239) 
CC(C)Oc1ccc2c(c1)CCC2=O

>  <exports>  (239) 
nan

>  <CrystalformSites upload name>  (239) 
nan

>  <name>  (239) 
NLUPNAKVXJFJDD-UHFFFAOYSA-N

>  <HIPPO ID>  (239) 
142074

$$$$
RAWORWZDBBYBGK-UHFFFAOYSA-N
     RDKit          3D

 14 14  0  0  0  0  0  0  0  0999 V2000
    4.5115   12.7949   26.6106 C   0  0  0  0  0  0  0  0  0  0  0  0
    5.6264   12.0744   26.7938 C   0  0  0  0  0  0  0  0  0  0  0  0
    6.8968   12.3086   26.0420 C   0  0  0  0  0  0  0  0  0  0  0  0
    7.4267   11.0547   25.6345 O   0  0  0  0  0  0  0  0  0  0  0  0
    8.5389   11.1000   24.8403 C   0  0  0  0  0  0  0  0  0  0  0  0
    9.3136   12.2250   24.5589 C   0  0  0  0  0  0  0  0  0  0  0  0
   10.3912   12.1350   23.6706 C   0  0  0  0  0  0  0  0  0  0  0  0
   10.7073   10.9110   23.0779 C   0  0  0  0  0  0  0  0  0  0  0  0
   11.7630   10.7638   22.0472 C   0  0  0  0  0  0  0  0  0  0  0  0
   11.9117    9.6541   21.5356 O   0  0  0  0  0  0  0  0  0  0  0  0
   12.5809   11.9817   21.6232 C   0  0  0  0  0  0  0  0  0  0  0  0
   13.6538   11.6144   20.5902 C   0  0  0  0  0  0  0  0  0  0  0  0
    9.9669    9.7742   23.4074 C   0  0  0  0  0  0  0  0  0  0  0  0
    8.8879    9.8778   24.2745 C   0  0  0  0  0  0  0  0  0  0  0  0
  1  2  2  0
  2  3  1  0
  3  4  1  0
  4  5  1  0
  5  6  2  0
  6  7  1  0
  7  8  2  0
  8  9  1  0
  9 10  2  0
  9 11  1  0
 11 12  1  0
  8 13  1  0
 13 14  2  0
 14  5  1  0
M  END
>  <Crystalforms alias>  (240) 
nan

>  <original ID>  (240) 
RAWORWZDBBYBGK-UHFFFAOYSA-N

>  <alias>  (240) 
None

>  <distance_score>  (240) 
0.351694

>  <CanonSites upload name>  (240) 
nan

>  <CanonSites alias>  (240) 
nan

>  <ConformerSites alias>  (240) 
nan

>  <observation_longname>  (240) 
nan

>  <CrystalformSites alias>  (240) 
nan

>  <tags>  (240) 
[]

>  <ref_mols>  (240) 
A1775a

>  <ref_pdb>  (240) 
A1775a

>  <Quatassemblies upload name>  (240) 
nan

>  <inchikey>  (240) 
RAWORWZDBBYBGK-UHFFFAOYSA-N

>  <Experiment code>  (240) 
nan

>  <Quatassemblies alias>  (240) 
nan

>  <Crystalforms upload name>  (240) 
nan

>  <Centroid res>  (240) 
nan

>  <ConformerSites upload name>  (240) 
nan

>  <energy_score>  (240) 
-17.623986

>  <original SMILES>  (240) 
C=CCOc1ccc(C(=O)CC)cc1

>  <exports>  (240) 
nan

>  <CrystalformSites upload name>  (240) 
nan

>  <name>  (240) 
RAWORWZDBBYBGK-UHFFFAOYSA-N

>  <HIPPO ID>  (240) 
142097

$$$$
QMJBKLCKNNEGDQ-UHFFFAOYSA-N
     RDKit          3D

 14 14  0  0  0  0  0  0  0  0999 V2000
    5.3167   12.3531   28.1467 C   0  0  0  0  0  0  0  0  0  0  0  0
    5.5810   11.9013   26.9141 C   0  0  0  0  0  0  0  0  0  0  0  0
    6.8114   12.2255   26.1313 C   0  0  0  0  0  0  0  0  0  0  0  0
    7.3793   10.9942   25.7023 O   0  0  0  0  0  0  0  0  0  0  0  0
    8.4795   11.0686   24.8992 C   0  0  0  0  0  0  0  0  0  0  0  0
    8.8389    9.8623   24.3013 C   0  0  0  0  0  0  0  0  0  0  0  0
    9.9176    9.7838   23.4320 C   0  0  0  0  0  0  0  0  0  0  0  0
   10.6446   10.9345   23.1389 C   0  0  0  0  0  0  0  0  0  0  0  0
   11.7087   10.8365   22.1152 C   0  0  0  0  0  0  0  0  0  0  0  0
   11.9218    9.7527   21.5667 O   0  0  0  0  0  0  0  0  0  0  0  0
   12.4757   12.1081   21.7495 C   0  0  0  0  0  0  0  0  0  0  0  0
   13.4921   11.7995   20.7285 N   0  0  0  0  0  0  0  0  0  0  0  0
   10.3175   12.1427   23.7639 C   0  0  0  0  0  0  0  0  0  0  0  0
    9.2399   12.2059   24.6491 C   0  0  0  0  0  0  0  0  0  0  0  0
  1  2  2  0
  2  3  1  0
  3  4  1  0
  4  5  1  0
  5  6  2  0
  6  7  1  0
  7  8  2  0
  8  9  1  0
  9 10  2  0
  9 11  1  0
 11 12  1  0
  8 13  1  0
 13 14  2  0
 14  5  1  0
M  END
>  <Crystalforms alias>  (241) 
nan

>  <original ID>  (241) 
QMJBKLCKNNEGDQ-UHFFFAOYSA-N

>  <alias>  (241) 
None

>  <distance_score>  (241) 
0.423606

>  <CanonSites upload name>  (241) 
nan

>  <CanonSites alias>  (241) 
nan

>  <ConformerSites alias>  (241) 
nan

>  <observation_longname>  (241) 
nan

>  <CrystalformSites alias>  (241) 
nan

>  <tags>  (241) 
[]

>  <ref_mols>  (241) 
A1775a

>  <ref_pdb>  (241) 
A1775a

>  <Quatassemblies upload name>  (241) 
nan

>  <inchikey>  (241) 
QMJBKLCKNNEGDQ-UHFFFAOYSA-N

>  <Experiment code>  (241) 
nan

>  <Quatassemblies alias>  (241) 
nan

>  <Crystalforms upload name>  (241) 
nan

>  <Centroid res>  (241) 
nan

>  <ConformerSites upload name>  (241) 
nan

>  <energy_score>  (241) 
-15.832207

>  <original SMILES>  (241) 
C=CCOc1ccc(C(=O)CN)cc1

>  <exports>  (241) 
nan

>  <CrystalformSites upload name>  (241) 
nan

>  <name>  (241) 
QMJBKLCKNNEGDQ-UHFFFAOYSA-N

>  <HIPPO ID>  (241) 
142100

$$$$
NEFVBCHVWLIJEM-UHFFFAOYSA-N
     RDKit          3D

 14 14  0  0  0  0  0  0  0  0999 V2000
    5.3281   12.4005   28.1302 C   0  0  0  0  0  0  0  0  0  0  0  0
    5.5886   11.9503   26.8962 C   0  0  0  0  0  0  0  0  0  0  0  0
    6.8229   12.2619   26.1137 C   0  0  0  0  0  0  0  0  0  0  0  0
    7.3923   11.0263   25.7050 O   0  0  0  0  0  0  0  0  0  0  0  0
    8.4879   11.0887   24.8950 C   0  0  0  0  0  0  0  0  0  0  0  0
    9.2533   12.2187   24.6218 C   0  0  0  0  0  0  0  0  0  0  0  0
   10.3285   12.1376   23.7320 C   0  0  0  0  0  0  0  0  0  0  0  0
   10.6485   10.9174   23.1283 C   0  0  0  0  0  0  0  0  0  0  0  0
   11.7093   10.7811   22.1035 C   0  0  0  0  0  0  0  0  0  0  0  0
   11.8795    9.6687   21.6049 O   0  0  0  0  0  0  0  0  0  0  0  0
   12.4814   12.0250   21.7020 C   0  0  0  0  0  0  0  0  0  0  0  0
   13.7109   11.6007   20.4841 Cl  0  0  0  0  0  0  0  0  0  0  0  0
    9.9123    9.7765   23.4449 C   0  0  0  0  0  0  0  0  0  0  0  0
    8.8369    9.8729   24.3145 C   0  0  0  0  0  0  0  0  0  0  0  0
  1  2  2  0
  2  3  1  0
  3  4  1  0
  4  5  1  0
  5  6  2  0
  6  7  1  0
  7  8  2  0
  8  9  1  0
  9 10  2  0
  9 11  1  0
 11 12  1  0
  8 13  1  0
 13 14  2  0
 14  5  1  0
M  END
>  <Crystalforms alias>  (242) 
nan

>  <original ID>  (242) 
NEFVBCHVWLIJEM-UHFFFAOYSA-N

>  <alias>  (242) 
None

>  <distance_score>  (242) 
0.392984

>  <CanonSites upload name>  (242) 
nan

>  <CanonSites alias>  (242) 
nan

>  <ConformerSites alias>  (242) 
nan

>  <observation_longname>  (242) 
nan

>  <CrystalformSites alias>  (242) 
nan

>  <tags>  (242) 
[]

>  <ref_mols>  (242) 
A1775a

>  <ref_pdb>  (242) 
A1775a

>  <Quatassemblies upload name>  (242) 
nan

>  <inchikey>  (242) 
NEFVBCHVWLIJEM-UHFFFAOYSA-N

>  <Experiment code>  (242) 
nan

>  <Quatassemblies alias>  (242) 
nan

>  <Crystalforms upload name>  (242) 
nan

>  <Centroid res>  (242) 
nan

>  <ConformerSites upload name>  (242) 
nan

>  <energy_score>  (242) 
-10.804934

>  <original SMILES>  (242) 
C=CCOc1ccc(C(=O)CCl)cc1

>  <exports>  (242) 
nan

>  <CrystalformSites upload name>  (242) 
nan

>  <name>  (242) 
NEFVBCHVWLIJEM-UHFFFAOYSA-N

>  <HIPPO ID>  (242) 
142104

$$$$
YISCRASURPUSBT-UHFFFAOYSA-N
     RDKit          3D

 14 15  0  0  0  0  0  0  0  0999 V2000
    4.6933   12.9248   26.6150 C   0  0  0  0  0  0  0  0  0  0  0  0
    5.7700   12.6632   25.8623 C   0  0  0  0  0  0  0  0  0  0  0  0
    7.0313   12.0360   26.3574 C   0  0  0  0  0  0  0  0  0  0  0  0
    7.3746   10.9483   25.5105 O   0  0  0  0  0  0  0  0  0  0  0  0
    8.4992   11.0124   24.7387 C   0  0  0  0  0  0  0  0  0  0  0  0
    8.9084    9.7586   24.2464 C   0  0  0  0  0  0  0  0  0  0  0  0
   10.0049    9.6167   23.4083 C   0  0  0  0  0  0  0  0  0  0  0  0
   10.6528   10.7730   23.0516 C   0  0  0  0  0  0  0  0  0  0  0  0
   10.2727   12.0318   23.4980 C   0  0  0  0  0  0  0  0  0  0  0  0
    9.1894   12.1651   24.3578 C   0  0  0  0  0  0  0  0  0  0  0  0
   11.0816   13.1160   22.8535 C   0  0  0  0  0  0  0  0  0  0  0  0
   12.1502   12.3776   22.0539 C   0  0  0  0  0  0  0  0  0  0  0  0
   11.7387   10.9221   22.1073 C   0  0  0  0  0  0  0  0  0  0  0  0
   12.1873    9.9870   21.4675 O   0  0  0  0  0  0  0  0  0  0  0  0
  1  2  2  0
  2  3  1  0
  3  4  1  0
  4  5  1  0
  5  6  2  0
  6  7  1  0
  7  8  2  0
  8  9  1  0
  9 10  2  0
  9 11  1  0
 11 12  1  0
 12 13  1  0
 13 14  2  0
 10  5  1  0
 13  8  1  0
M  END
>  <Crystalforms alias>  (243) 
nan

>  <original ID>  (243) 
YISCRASURPUSBT-UHFFFAOYSA-N

>  <alias>  (243) 
None

>  <distance_score>  (243) 
1.197469

>  <CanonSites upload name>  (243) 
nan

>  <CanonSites alias>  (243) 
nan

>  <ConformerSites alias>  (243) 
nan

>  <observation_longname>  (243) 
nan

>  <CrystalformSites alias>  (243) 
nan

>  <tags>  (243) 
[]

>  <ref_mols>  (243) 
A1775a

>  <ref_pdb>  (243) 
A1775a

>  <Quatassemblies upload name>  (243) 
nan

>  <inchikey>  (243) 
YISCRASURPUSBT-UHFFFAOYSA-N

>  <Experiment code>  (243) 
nan

>  <Quatassemblies alias>  (243) 
nan

>  <Crystalforms upload name>  (243) 
nan

>  <Centroid res>  (243) 
nan

>  <ConformerSites upload name>  (243) 
nan

>  <energy_score>  (243) 
-8.60085

>  <original SMILES>  (243) 
C=CCOc1ccc2c(c1)CCC2=O

>  <exports>  (243) 
nan

>  <CrystalformSites upload name>  (243) 
nan

>  <name>  (243) 
YISCRASURPUSBT-UHFFFAOYSA-N

>  <HIPPO ID>  (243) 
142108

$$$$
JBHDFHAGLYIVNW-NSHDSACASA-N
     RDKit          3D

 15 15  0  0  0  0  0  0  0  0999 V2000
    4.2189   10.6440   28.5948 C   0  0  0  0  0  0  0  0  0  0  0  0
    5.4598   10.7437   27.7186 C   0  0  0  0  0  0  0  0  0  0  0  0
    5.6197   12.1209   27.0576 C   0  0  2  0  0  0  0  0  0  0  0  0
    4.5217   12.3697   26.1193 N   0  0  0  0  0  0  0  0  0  0  0  0
    6.9788   12.2681   26.3482 C   0  0  0  0  0  0  0  0  0  0  0  0
    7.3409   11.0710   25.6673 O   0  0  0  0  0  0  0  0  0  0  0  0
    8.4795   11.1138   24.9161 C   0  0  0  0  0  0  0  0  0  0  0  0
    9.2794   12.2330   24.7078 C   0  0  0  0  0  0  0  0  0  0  0  0
   10.3603   12.1623   23.8313 C   0  0  0  0  0  0  0  0  0  0  0  0
   10.6561   10.9635   23.1761 C   0  0  0  0  0  0  0  0  0  0  0  0
   11.7126   10.8815   22.1451 C   0  0  0  0  0  0  0  0  0  0  0  0
   12.4373   12.1516   21.7697 C   0  0  0  0  0  0  0  0  0  0  0  0
   11.9452    9.8050   21.5976 O   0  0  0  0  0  0  0  0  0  0  0  0
    9.9033    9.8227   23.4408 C   0  0  0  0  0  0  0  0  0  0  0  0
    8.8166    9.9092   24.3009 C   0  0  0  0  0  0  0  0  0  0  0  0
  1  2  1  0
  2  3  1  0
  3  4  1  6
  3  5  1  0
  5  6  1  0
  6  7  1  0
  7  8  2  0
  8  9  1  0
  9 10  2  0
 10 11  1  0
 11 12  1  0
 11 13  2  0
 10 14  1  0
 14 15  2  0
 15  7  1  0
M  END
>  <Crystalforms alias>  (244) 
nan

>  <original ID>  (244) 
JBHDFHAGLYIVNW-NSHDSACASA-N

>  <alias>  (244) 
None

>  <distance_score>  (244) 
0.495425

>  <CanonSites upload name>  (244) 
nan

>  <CanonSites alias>  (244) 
nan

>  <ConformerSites alias>  (244) 
nan

>  <observation_longname>  (244) 
nan

>  <CrystalformSites alias>  (244) 
nan

>  <tags>  (244) 
[]

>  <ref_mols>  (244) 
A1775a

>  <ref_pdb>  (244) 
A1775a

>  <Quatassemblies upload name>  (244) 
nan

>  <inchikey>  (244) 
JBHDFHAGLYIVNW-NSHDSACASA-N

>  <Experiment code>  (244) 
nan

>  <Quatassemblies alias>  (244) 
nan

>  <Crystalforms upload name>  (244) 
nan

>  <Centroid res>  (244) 
nan

>  <ConformerSites upload name>  (244) 
nan

>  <energy_score>  (244) 
-15.643221

>  <original SMILES>  (244) 
CC[C@H](N)COc1ccc(C(C)=O)cc1

>  <exports>  (244) 
nan

>  <CrystalformSites upload name>  (244) 
nan

>  <name>  (244) 
JBHDFHAGLYIVNW-NSHDSACASA-N

>  <HIPPO ID>  (244) 
142134

$$$$
JBHDFHAGLYIVNW-LLVKDONJSA-N
     RDKit          3D

 15 15  0  0  0  0  0  0  0  0999 V2000
    3.2601   13.1637   27.2261 C   0  0  0  0  0  0  0  0  0  0  0  0
    4.4305   13.0750   26.2630 C   0  0  0  0  0  0  0  0  0  0  0  0
    5.5336   12.1005   26.7024 C   0  0  1  0  0  0  0  0  0  0  0  0
    5.0312   10.7375   26.9080 N   0  0  0  0  0  0  0  0  0  0  0  0
    6.6481   12.1304   25.6453 C   0  0  0  0  0  0  0  0  0  0  0  0
    7.6288   11.1348   25.9353 O   0  0  0  0  0  0  0  0  0  0  0  0
    8.6278   11.1306   25.0042 C   0  0  0  0  0  0  0  0  0  0  0  0
    9.4245   12.2468   24.7713 C   0  0  0  0  0  0  0  0  0  0  0  0
   10.4460   12.1760   23.8321 C   0  0  0  0  0  0  0  0  0  0  0  0
   10.6866   10.9775   23.1516 C   0  0  0  0  0  0  0  0  0  0  0  0
   11.7301   10.8772   22.1098 C   0  0  0  0  0  0  0  0  0  0  0  0
   12.4690   12.1352   21.7224 C   0  0  0  0  0  0  0  0  0  0  0  0
   11.9447    9.7947   21.5674 O   0  0  0  0  0  0  0  0  0  0  0  0
    9.9152    9.8473   23.4247 C   0  0  0  0  0  0  0  0  0  0  0  0
    8.8816    9.9322   24.3469 C   0  0  0  0  0  0  0  0  0  0  0  0
  1  2  1  0
  2  3  1  0
  3  4  1  6
  3  5  1  0
  5  6  1  0
  6  7  1  0
  7  8  2  0
  8  9  1  0
  9 10  2  0
 10 11  1  0
 11 12  1  0
 11 13  2  0
 10 14  1  0
 14 15  2  0
 15  7  1  0
M  END
>  <Crystalforms alias>  (245) 
nan

>  <original ID>  (245) 
JBHDFHAGLYIVNW-LLVKDONJSA-N

>  <alias>  (245) 
None

>  <distance_score>  (245) 
0.494336

>  <CanonSites upload name>  (245) 
nan

>  <CanonSites alias>  (245) 
nan

>  <ConformerSites alias>  (245) 
nan

>  <observation_longname>  (245) 
nan

>  <CrystalformSites alias>  (245) 
nan

>  <tags>  (245) 
[]

>  <ref_mols>  (245) 
A1775a

>  <ref_pdb>  (245) 
A1775a

>  <Quatassemblies upload name>  (245) 
nan

>  <inchikey>  (245) 
JBHDFHAGLYIVNW-LLVKDONJSA-N

>  <Experiment code>  (245) 
nan

>  <Quatassemblies alias>  (245) 
nan

>  <Crystalforms upload name>  (245) 
nan

>  <Centroid res>  (245) 
nan

>  <ConformerSites upload name>  (245) 
nan

>  <energy_score>  (245) 
-45.396276

>  <original SMILES>  (245) 
CC[C@@H](N)COc1ccc(C(C)=O)cc1

>  <exports>  (245) 
nan

>  <CrystalformSites upload name>  (245) 
nan

>  <name>  (245) 
JBHDFHAGLYIVNW-LLVKDONJSA-N

>  <HIPPO ID>  (245) 
142135

$$$$
GMWCXQJBEZWLOL-UHFFFAOYSA-N
     RDKit          3D

 15 15  0  0  0  0  0  0  0  0999 V2000
   12.3945   12.1728   21.8117 C   0  0  0  0  0  0  0  0  0  0  0  0
   11.6491   10.9146   22.1861 C   0  0  0  0  0  0  0  0  0  0  0  0
   11.8769    9.8310   21.6502 O   0  0  0  0  0  0  0  0  0  0  0  0
   10.5834   11.0190   23.2086 C   0  0  0  0  0  0  0  0  0  0  0  0
   10.3064   12.2235   23.8672 C   0  0  0  0  0  0  0  0  0  0  0  0
    9.2721   12.2915   24.7989 C   0  0  0  0  0  0  0  0  0  0  0  0
    8.4972   11.1658   25.0495 C   0  0  0  0  0  0  0  0  0  0  0  0
    7.5257   11.1335   26.0072 O   0  0  0  0  0  0  0  0  0  0  0  0
    6.5073   12.1214   25.8415 C   0  0  0  0  0  0  0  0  0  0  0  0
    5.4979   12.0407   26.9949 C   0  0  0  0  0  0  0  0  0  0  0  0
    6.1424   12.1785   28.3675 C   0  0  0  0  0  0  0  0  0  0  0  0
    4.4075   13.0879   26.8237 C   0  0  0  0  0  0  0  0  0  0  0  0
    4.9056   10.8127   26.9635 F   0  0  0  0  0  0  0  0  0  0  0  0
    8.7847    9.9660   24.4058 C   0  0  0  0  0  0  0  0  0  0  0  0
    9.8275    9.8827   23.4916 C   0  0  0  0  0  0  0  0  0  0  0  0
  1  2  1  0
  2  3  2  0
  2  4  1  0
  4  5  2  0
  5  6  1  0
  6  7  2  0
  7  8  1  0
  8  9  1  0
  9 10  1  0
 10 11  1  0
 10 12  1  0
 10 13  1  0
  7 14  1  0
 14 15  2  0
 15  4  1  0
M  END
>  <Crystalforms alias>  (246) 
nan

>  <original ID>  (246) 
GMWCXQJBEZWLOL-UHFFFAOYSA-N

>  <alias>  (246) 
None

>  <distance_score>  (246) 
0.570983

>  <CanonSites upload name>  (246) 
nan

>  <CanonSites alias>  (246) 
nan

>  <ConformerSites alias>  (246) 
nan

>  <observation_longname>  (246) 
nan

>  <CrystalformSites alias>  (246) 
nan

>  <tags>  (246) 
[]

>  <ref_mols>  (246) 
A1775a

>  <ref_pdb>  (246) 
A1775a

>  <Quatassemblies upload name>  (246) 
nan

>  <inchikey>  (246) 
GMWCXQJBEZWLOL-UHFFFAOYSA-N

>  <Experiment code>  (246) 
nan

>  <Quatassemblies alias>  (246) 
nan

>  <Crystalforms upload name>  (246) 
nan

>  <Centroid res>  (246) 
nan

>  <ConformerSites upload name>  (246) 
nan

>  <energy_score>  (246) 
-15.076654

>  <original SMILES>  (246) 
CC(=O)c1ccc(OCC(C)(C)F)cc1

>  <exports>  (246) 
nan

>  <CrystalformSites upload name>  (246) 
nan

>  <name>  (246) 
GMWCXQJBEZWLOL-UHFFFAOYSA-N

>  <HIPPO ID>  (246) 
142630

$$$$
WLTPFXQNFLAKQT-UHFFFAOYSA-N
     RDKit          3D

 15 15  0  0  0  0  0  0  0  0999 V2000
   12.4219   12.1422   21.7884 C   0  0  0  0  0  0  0  0  0  0  0  0
   11.6887   10.8746   22.1612 C   0  0  0  0  0  0  0  0  0  0  0  0
   11.9188    9.7965   21.6165 O   0  0  0  0  0  0  0  0  0  0  0  0
   10.6244   10.9627   23.1851 C   0  0  0  0  0  0  0  0  0  0  0  0
   10.3135   12.1704   23.8139 C   0  0  0  0  0  0  0  0  0  0  0  0
    9.2299   12.2475   24.6867 C   0  0  0  0  0  0  0  0  0  0  0  0
    8.4395   11.1252   24.9245 C   0  0  0  0  0  0  0  0  0  0  0  0
    7.3093   11.0900   25.6979 O   0  0  0  0  0  0  0  0  0  0  0  0
    6.8496   12.3585   26.1676 C   0  0  0  0  0  0  0  0  0  0  0  0
    5.5749   12.2797   26.9859 C   0  0  0  0  0  0  0  0  0  0  0  0
    5.6583   11.3512   27.9581 F   0  0  0  0  0  0  0  0  0  0  0  0
    5.3681   13.4703   27.6010 F   0  0  0  0  0  0  0  0  0  0  0  0
    4.4975   12.0335   26.2245 F   0  0  0  0  0  0  0  0  0  0  0  0
    8.7910    9.9131   24.3333 C   0  0  0  0  0  0  0  0  0  0  0  0
    9.8796    9.8214   23.4723 C   0  0  0  0  0  0  0  0  0  0  0  0
  1  2  1  0
  2  3  2  0
  2  4  1  0
  4  5  2  0
  5  6  1  0
  6  7  2  0
  7  8  1  0
  8  9  1  0
  9 10  1  0
 10 11  1  0
 10 12  1  0
 10 13  1  0
  7 14  1  0
 14 15  2  0
 15  4  1  0
M  END
>  <Crystalforms alias>  (247) 
nan

>  <original ID>  (247) 
WLTPFXQNFLAKQT-UHFFFAOYSA-N

>  <alias>  (247) 
None

>  <distance_score>  (247) 
0.502388

>  <CanonSites upload name>  (247) 
nan

>  <CanonSites alias>  (247) 
nan

>  <ConformerSites alias>  (247) 
nan

>  <observation_longname>  (247) 
nan

>  <CrystalformSites alias>  (247) 
nan

>  <tags>  (247) 
[]

>  <ref_mols>  (247) 
A1775a

>  <ref_pdb>  (247) 
A1775a

>  <Quatassemblies upload name>  (247) 
nan

>  <inchikey>  (247) 
WLTPFXQNFLAKQT-UHFFFAOYSA-N

>  <Experiment code>  (247) 
nan

>  <Quatassemblies alias>  (247) 
nan

>  <Crystalforms upload name>  (247) 
nan

>  <Centroid res>  (247) 
nan

>  <ConformerSites upload name>  (247) 
nan

>  <energy_score>  (247) 
-9.695645

>  <original SMILES>  (247) 
CC(=O)c1ccc(OCC(F)(F)F)cc1

>  <exports>  (247) 
nan

>  <CrystalformSites upload name>  (247) 
nan

>  <name>  (247) 
WLTPFXQNFLAKQT-UHFFFAOYSA-N

>  <HIPPO ID>  (247) 
142706

$$$$
FPXQDBTUVBTBCB-QMMMGPOBSA-N
     RDKit          3D

 15 15  0  0  0  0  0  0  0  0999 V2000
    5.2581   10.7298   27.3298 C   0  0  0  0  0  0  0  0  0  0  0  0
    5.5235   12.1360   26.8148 C   0  0  2  0  0  0  0  0  0  0  0  0
    4.4652   12.4746   25.9210 O   0  0  0  0  0  0  0  0  0  0  0  0
    6.8916   12.2925   26.1316 C   0  0  0  0  0  0  0  0  0  0  0  0
    7.3632   11.0602   25.5948 O   0  0  0  0  0  0  0  0  0  0  0  0
    8.4987   11.1043   24.8389 C   0  0  0  0  0  0  0  0  0  0  0  0
    8.8578    9.8847   24.2698 C   0  0  0  0  0  0  0  0  0  0  0  0
    9.9471    9.7856   23.4143 C   0  0  0  0  0  0  0  0  0  0  0  0
   10.6849   10.9267   23.1035 C   0  0  0  0  0  0  0  0  0  0  0  0
   11.7520   10.8019   22.0843 C   0  0  0  0  0  0  0  0  0  0  0  0
   11.9625    9.7008   21.5702 O   0  0  0  0  0  0  0  0  0  0  0  0
   12.5337   12.0546   21.6775 C   0  0  0  0  0  0  0  0  0  0  0  0
   13.5985   11.6893   20.7193 N   0  0  0  0  0  0  0  0  0  0  0  0
   10.3630   12.1456   23.7072 C   0  0  0  0  0  0  0  0  0  0  0  0
    9.2782   12.2291   24.5837 C   0  0  0  0  0  0  0  0  0  0  0  0
  2  1  1  6
  2  3  1  0
  2  4  1  0
  4  5  1  0
  5  6  1  0
  6  7  2  0
  7  8  1  0
  8  9  2  0
  9 10  1  0
 10 11  2  0
 10 12  1  0
 12 13  1  0
  9 14  1  0
 14 15  2  0
 15  6  1  0
M  END
>  <Crystalforms alias>  (248) 
nan

>  <original ID>  (248) 
FPXQDBTUVBTBCB-QMMMGPOBSA-N

>  <alias>  (248) 
None

>  <distance_score>  (248) 
0.379647

>  <CanonSites upload name>  (248) 
nan

>  <CanonSites alias>  (248) 
nan

>  <ConformerSites alias>  (248) 
nan

>  <observation_longname>  (248) 
nan

>  <CrystalformSites alias>  (248) 
nan

>  <tags>  (248) 
[]

>  <ref_mols>  (248) 
A1775a

>  <ref_pdb>  (248) 
A1775a

>  <Quatassemblies upload name>  (248) 
nan

>  <inchikey>  (248) 
FPXQDBTUVBTBCB-QMMMGPOBSA-N

>  <Experiment code>  (248) 
nan

>  <Quatassemblies alias>  (248) 
nan

>  <Crystalforms upload name>  (248) 
nan

>  <Centroid res>  (248) 
nan

>  <ConformerSites upload name>  (248) 
nan

>  <energy_score>  (248) 
-33.823557

>  <original SMILES>  (248) 
C[C@H](O)COc1ccc(C(=O)CN)cc1

>  <exports>  (248) 
nan

>  <CrystalformSites upload name>  (248) 
nan

>  <name>  (248) 
FPXQDBTUVBTBCB-QMMMGPOBSA-N

>  <HIPPO ID>  (248) 
143378

$$$$
FPXQDBTUVBTBCB-MRVPVSSYSA-N
     RDKit          3D

 15 15  0  0  0  0  0  0  0  0999 V2000
    5.3323   10.5893   27.3762 C   0  0  0  0  0  0  0  0  0  0  0  0
    5.5528   11.9814   26.8066 C   0  0  1  0  0  0  0  0  0  0  0  0
    5.4284   12.9449   27.8560 O   0  0  0  0  0  0  0  0  0  0  0  0
    6.9247   12.1740   26.1527 C   0  0  0  0  0  0  0  0  0  0  0  0
    7.3588   10.9840   25.5130 O   0  0  0  0  0  0  0  0  0  0  0  0
    8.5121   11.0472   24.7886 C   0  0  0  0  0  0  0  0  0  0  0  0
    9.2827   12.1822   24.5518 C   0  0  0  0  0  0  0  0  0  0  0  0
   10.3788   12.1152   23.6870 C   0  0  0  0  0  0  0  0  0  0  0  0
   10.7155   10.9033   23.0775 C   0  0  0  0  0  0  0  0  0  0  0  0
   11.7805   10.7906   22.0562 C   0  0  0  0  0  0  0  0  0  0  0  0
   11.9914    9.6936   21.5328 O   0  0  0  0  0  0  0  0  0  0  0  0
   12.5587   12.0442   21.6478 C   0  0  0  0  0  0  0  0  0  0  0  0
   13.5974   11.6780   20.6560 N   0  0  0  0  0  0  0  0  0  0  0  0
    9.9887    9.7519   23.3759 C   0  0  0  0  0  0  0  0  0  0  0  0
    8.8904    9.8344   24.2187 C   0  0  0  0  0  0  0  0  0  0  0  0
  2  1  1  1
  2  3  1  0
  2  4  1  0
  4  5  1  0
  5  6  1  0
  6  7  2  0
  7  8  1  0
  8  9  2  0
  9 10  1  0
 10 11  2  0
 10 12  1  0
 12 13  1  0
  9 14  1  0
 14 15  2  0
 15  6  1  0
M  END
>  <Crystalforms alias>  (249) 
nan

>  <original ID>  (249) 
FPXQDBTUVBTBCB-MRVPVSSYSA-N

>  <alias>  (249) 
None

>  <distance_score>  (249) 
0.362333

>  <CanonSites upload name>  (249) 
nan

>  <CanonSites alias>  (249) 
nan

>  <ConformerSites alias>  (249) 
nan

>  <observation_longname>  (249) 
nan

>  <CrystalformSites alias>  (249) 
nan

>  <tags>  (249) 
[]

>  <ref_mols>  (249) 
A1775a

>  <ref_pdb>  (249) 
A1775a

>  <Quatassemblies upload name>  (249) 
nan

>  <inchikey>  (249) 
FPXQDBTUVBTBCB-MRVPVSSYSA-N

>  <Experiment code>  (249) 
nan

>  <Quatassemblies alias>  (249) 
nan

>  <Crystalforms upload name>  (249) 
nan

>  <Centroid res>  (249) 
nan

>  <ConformerSites upload name>  (249) 
nan

>  <energy_score>  (249) 
-44.993595

>  <original SMILES>  (249) 
C[C@@H](O)COc1ccc(C(=O)CN)cc1

>  <exports>  (249) 
nan

>  <CrystalformSites upload name>  (249) 
nan

>  <name>  (249) 
FPXQDBTUVBTBCB-MRVPVSSYSA-N

>  <HIPPO ID>  (249) 
143379

$$$$
XZOWVNOCWULZDC-SECBINFHSA-N
     RDKit          3D

 15 15  0  0  0  0  0  0  0  0999 V2000
   13.6780   11.6080   20.5689 C   0  0  0  0  0  0  0  0  0  0  0  0
   12.6041   11.9807   21.5968 C   0  0  0  0  0  0  0  0  0  0  0  0
   11.7805   10.7694   22.0261 C   0  0  0  0  0  0  0  0  0  0  0  0
   11.9288    9.6526   21.5304 O   0  0  0  0  0  0  0  0  0  0  0  0
   10.7233   10.9311   23.0524 C   0  0  0  0  0  0  0  0  0  0  0  0
   10.4174   12.1613   23.6387 C   0  0  0  0  0  0  0  0  0  0  0  0
    9.3569   12.2608   24.5454 C   0  0  0  0  0  0  0  0  0  0  0  0
    8.5946   11.1371   24.8557 C   0  0  0  0  0  0  0  0  0  0  0  0
    7.5221   11.0868   25.6951 O   0  0  0  0  0  0  0  0  0  0  0  0
    7.1133   12.3040   26.3116 C   0  0  0  0  0  0  0  0  0  0  0  0
    5.9946   12.0314   27.3236 C   0  0  1  0  0  0  0  0  0  0  0  0
    4.8523   11.2624   26.7087 C   0  0  0  0  0  0  0  0  0  0  0  0
    6.5001   11.2827   28.4266 O   0  0  0  0  0  0  0  0  0  0  0  0
    8.9164    9.9132   24.2763 C   0  0  0  0  0  0  0  0  0  0  0  0
    9.9784    9.8004   23.3911 C   0  0  0  0  0  0  0  0  0  0  0  0
  1  2  1  0
  2  3  1  0
  3  4  2  0
  3  5  1  0
  5  6  2  0
  6  7  1  0
  7  8  2  0
  8  9  1  0
  9 10  1  0
 10 11  1  0
 11 12  1  6
 11 13  1  0
  8 14  1  0
 14 15  2  0
 15  5  1  0
M  END
>  <Crystalforms alias>  (250) 
nan

>  <original ID>  (250) 
XZOWVNOCWULZDC-SECBINFHSA-N

>  <alias>  (250) 
None

>  <distance_score>  (250) 
0.426115

>  <CanonSites upload name>  (250) 
nan

>  <CanonSites alias>  (250) 
nan

>  <ConformerSites alias>  (250) 
nan

>  <observation_longname>  (250) 
nan

>  <CrystalformSites alias>  (250) 
nan

>  <tags>  (250) 
[]

>  <ref_mols>  (250) 
A1775a

>  <ref_pdb>  (250) 
A1775a

>  <Quatassemblies upload name>  (250) 
nan

>  <inchikey>  (250) 
XZOWVNOCWULZDC-SECBINFHSA-N

>  <Experiment code>  (250) 
nan

>  <Quatassemblies alias>  (250) 
nan

>  <Crystalforms upload name>  (250) 
nan

>  <Centroid res>  (250) 
nan

>  <ConformerSites upload name>  (250) 
nan

>  <energy_score>  (250) 
-24.705628

>  <original SMILES>  (250) 
CCC(=O)c1ccc(OC[C@@H](C)O)cc1

>  <exports>  (250) 
nan

>  <CrystalformSites upload name>  (250) 
nan

>  <name>  (250) 
XZOWVNOCWULZDC-SECBINFHSA-N

>  <HIPPO ID>  (250) 
143380

$$$$
XZOWVNOCWULZDC-VIFPVBQESA-N
     RDKit          3D

 15 15  0  0  0  0  0  0  0  0999 V2000
   13.6658   11.6045   20.5768 C   0  0  0  0  0  0  0  0  0  0  0  0
   12.5944   11.9722   21.6093 C   0  0  0  0  0  0  0  0  0  0  0  0
   11.7736   10.7573   22.0407 C   0  0  0  0  0  0  0  0  0  0  0  0
   11.9094    9.6464   21.5292 O   0  0  0  0  0  0  0  0  0  0  0  0
   10.7297   10.9129   23.0819 C   0  0  0  0  0  0  0  0  0  0  0  0
    9.9663    9.7895   23.4136 C   0  0  0  0  0  0  0  0  0  0  0  0
    8.9011    9.9086   24.2981 C   0  0  0  0  0  0  0  0  0  0  0  0
    8.5915   11.1374   24.8682 C   0  0  0  0  0  0  0  0  0  0  0  0
    7.4896   11.1517   25.6846 O   0  0  0  0  0  0  0  0  0  0  0  0
    6.7663   12.3855   25.6238 C   0  0  0  0  0  0  0  0  0  0  0  0
    5.4189   12.2749   26.3404 C   0  0  2  0  0  0  0  0  0  0  0  0
    4.4132   13.2518   25.7520 C   0  0  0  0  0  0  0  0  0  0  0  0
    5.5963   12.6322   27.7137 O   0  0  0  0  0  0  0  0  0  0  0  0
    9.3962   12.2446   24.5927 C   0  0  0  0  0  0  0  0  0  0  0  0
   10.4557   12.1383   23.6899 C   0  0  0  0  0  0  0  0  0  0  0  0
  1  2  1  0
  2  3  1  0
  3  4  2  0
  3  5  1  0
  5  6  2  0
  6  7  1  0
  7  8  2  0
  8  9  1  0
  9 10  1  0
 10 11  1  0
 11 12  1  6
 11 13  1  0
  8 14  1  0
 14 15  2  0
 15  5  1  0
M  END
>  <Crystalforms alias>  (251) 
nan

>  <original ID>  (251) 
XZOWVNOCWULZDC-VIFPVBQESA-N

>  <alias>  (251) 
None

>  <distance_score>  (251) 
0.385427

>  <CanonSites upload name>  (251) 
nan

>  <CanonSites alias>  (251) 
nan

>  <ConformerSites alias>  (251) 
nan

>  <observation_longname>  (251) 
nan

>  <CrystalformSites alias>  (251) 
nan

>  <tags>  (251) 
[]

>  <ref_mols>  (251) 
A1775a

>  <ref_pdb>  (251) 
A1775a

>  <Quatassemblies upload name>  (251) 
nan

>  <inchikey>  (251) 
XZOWVNOCWULZDC-VIFPVBQESA-N

>  <Experiment code>  (251) 
nan

>  <Quatassemblies alias>  (251) 
nan

>  <Crystalforms upload name>  (251) 
nan

>  <Centroid res>  (251) 
nan

>  <ConformerSites upload name>  (251) 
nan

>  <energy_score>  (251) 
-16.986929

>  <original SMILES>  (251) 
CCC(=O)c1ccc(OC[C@H](C)O)cc1

>  <exports>  (251) 
nan

>  <CrystalformSites upload name>  (251) 
nan

>  <name>  (251) 
XZOWVNOCWULZDC-VIFPVBQESA-N

>  <HIPPO ID>  (251) 
143381

$$$$
ZGXRCNLBHFHFTG-MRVPVSSYSA-N
     RDKit          3D

 15 15  0  0  0  0  0  0  0  0999 V2000
    4.8227   11.2256   26.8051 C   0  0  0  0  0  0  0  0  0  0  0  0
    5.9572   12.0268   27.3941 C   0  0  1  0  0  0  0  0  0  0  0  0
    6.4891   11.3060   28.5042 O   0  0  0  0  0  0  0  0  0  0  0  0
    7.0605   12.3012   26.3673 C   0  0  0  0  0  0  0  0  0  0  0  0
    7.4637   11.0838   25.7462 O   0  0  0  0  0  0  0  0  0  0  0  0
    8.5365   11.1334   24.9087 C   0  0  0  0  0  0  0  0  0  0  0  0
    8.8536    9.9135   24.3177 C   0  0  0  0  0  0  0  0  0  0  0  0
    9.9164    9.8018   23.4344 C   0  0  0  0  0  0  0  0  0  0  0  0
   10.6656   10.9324   23.1115 C   0  0  0  0  0  0  0  0  0  0  0  0
   11.7232   10.7839   22.0863 C   0  0  0  0  0  0  0  0  0  0  0  0
   11.8872    9.6685   21.5928 O   0  0  0  0  0  0  0  0  0  0  0  0
   12.5012   12.0228   21.6813 C   0  0  0  0  0  0  0  0  0  0  0  0
   13.7315   11.5945   20.4688 Cl  0  0  0  0  0  0  0  0  0  0  0  0
   10.3657   12.1590   23.7119 C   0  0  0  0  0  0  0  0  0  0  0  0
    9.3049   12.2553   24.6145 C   0  0  0  0  0  0  0  0  0  0  0  0
  2  1  1  6
  2  3  1  0
  2  4  1  0
  4  5  1  0
  5  6  1  0
  6  7  2  0
  7  8  1  0
  8  9  2  0
  9 10  1  0
 10 11  2  0
 10 12  1  0
 12 13  1  0
  9 14  1  0
 14 15  2  0
 15  6  1  0
M  END
>  <Crystalforms alias>  (252) 
nan

>  <original ID>  (252) 
ZGXRCNLBHFHFTG-MRVPVSSYSA-N

>  <alias>  (252) 
None

>  <distance_score>  (252) 
0.457593

>  <CanonSites upload name>  (252) 
nan

>  <CanonSites alias>  (252) 
nan

>  <ConformerSites alias>  (252) 
nan

>  <observation_longname>  (252) 
nan

>  <CrystalformSites alias>  (252) 
nan

>  <tags>  (252) 
[]

>  <ref_mols>  (252) 
A1775a

>  <ref_pdb>  (252) 
A1775a

>  <Quatassemblies upload name>  (252) 
nan

>  <inchikey>  (252) 
ZGXRCNLBHFHFTG-MRVPVSSYSA-N

>  <Experiment code>  (252) 
nan

>  <Quatassemblies alias>  (252) 
nan

>  <Crystalforms upload name>  (252) 
nan

>  <Centroid res>  (252) 
nan

>  <ConformerSites upload name>  (252) 
nan

>  <energy_score>  (252) 
-11.119439

>  <original SMILES>  (252) 
C[C@@H](O)COc1ccc(C(=O)CCl)cc1

>  <exports>  (252) 
nan

>  <CrystalformSites upload name>  (252) 
nan

>  <name>  (252) 
ZGXRCNLBHFHFTG-MRVPVSSYSA-N

>  <HIPPO ID>  (252) 
143390

$$$$
ZGXRCNLBHFHFTG-MRVPVSSYSA-N
     RDKit          3D

 15 15  0  0  0  0  0  0  0  0999 V2000
    5.6958   11.6696   28.0905 C   0  0  0  0  0  0  0  0  0  0  0  0
    5.4698   12.1449   26.6615 C   0  0  1  0  0  0  0  0  0  0  0  0
    4.7930   13.3972   26.7231 O   0  0  0  0  0  0  0  0  0  0  0  0
    6.7864   12.3191   25.9078 C   0  0  0  0  0  0  0  0  0  0  0  0
    7.4097   11.0612   25.6865 O   0  0  0  0  0  0  0  0  0  0  0  0
    8.5131   11.0940   24.8805 C   0  0  0  0  0  0  0  0  0  0  0  0
    8.8536    9.8728   24.3092 C   0  0  0  0  0  0  0  0  0  0  0  0
    9.9284    9.7696   23.4381 C   0  0  0  0  0  0  0  0  0  0  0  0
   10.6710   10.9063   23.1168 C   0  0  0  0  0  0  0  0  0  0  0  0
   11.7263   10.7702   22.0875 C   0  0  0  0  0  0  0  0  0  0  0  0
   11.8913    9.6583   21.5870 O   0  0  0  0  0  0  0  0  0  0  0  0
   12.4975   12.0152   21.6852 C   0  0  0  0  0  0  0  0  0  0  0  0
   13.7286   11.5952   20.4707 Cl  0  0  0  0  0  0  0  0  0  0  0  0
   10.3638   12.1285   23.7196 C   0  0  0  0  0  0  0  0  0  0  0  0
    9.2917   12.2172   24.6083 C   0  0  0  0  0  0  0  0  0  0  0  0
  2  1  1  1
  2  3  1  0
  2  4  1  0
  4  5  1  0
  5  6  1  0
  6  7  2  0
  7  8  1  0
  8  9  2  0
  9 10  1  0
 10 11  2  0
 10 12  1  0
 12 13  1  0
  9 14  1  0
 14 15  2  0
 15  6  1  0
M  END
>  <Crystalforms alias>  (253) 
nan

>  <original ID>  (253) 
ZGXRCNLBHFHFTG-MRVPVSSYSA-N

>  <alias>  (253) 
None

>  <distance_score>  (253) 
0.376586

>  <CanonSites upload name>  (253) 
nan

>  <CanonSites alias>  (253) 
nan

>  <ConformerSites alias>  (253) 
nan

>  <observation_longname>  (253) 
nan

>  <CrystalformSites alias>  (253) 
nan

>  <tags>  (253) 
[]

>  <ref_mols>  (253) 
A1775a

>  <ref_pdb>  (253) 
A1775a

>  <Quatassemblies upload name>  (253) 
nan

>  <inchikey>  (253) 
ZGXRCNLBHFHFTG-MRVPVSSYSA-N

>  <Experiment code>  (253) 
nan

>  <Quatassemblies alias>  (253) 
nan

>  <Crystalforms upload name>  (253) 
nan

>  <Centroid res>  (253) 
nan

>  <ConformerSites upload name>  (253) 
nan

>  <energy_score>  (253) 
-13.162745

>  <original SMILES>  (253) 
C[C@@H](O)COc1ccc(C(=O)CCl)cc1

>  <exports>  (253) 
nan

>  <CrystalformSites upload name>  (253) 
nan

>  <name>  (253) 
ZGXRCNLBHFHFTG-MRVPVSSYSA-N

>  <HIPPO ID>  (253) 
143391

$$$$
ZVZPOGVDSDWYQI-MRVPVSSYSA-N
     RDKit          3D

 15 16  0  0  0  0  0  0  0  0999 V2000
    5.3572   12.9835   28.0237 C   0  0  0  0  0  0  0  0  0  0  0  0
    5.5909   12.0747   26.8296 C   0  0  1  0  0  0  0  0  0  0  0  0
    4.5279   12.3238   25.9128 O   0  0  0  0  0  0  0  0  0  0  0  0
    6.9526   12.2995   26.1517 C   0  0  0  0  0  0  0  0  0  0  0  0
    7.4115   11.0604   25.6084 O   0  0  0  0  0  0  0  0  0  0  0  0
    8.5356   11.0807   24.8286 C   0  0  0  0  0  0  0  0  0  0  0  0
    8.8508    9.8318   24.2618 C   0  0  0  0  0  0  0  0  0  0  0  0
    9.9207    9.6691   23.3919 C   0  0  0  0  0  0  0  0  0  0  0  0
   10.6518   10.7955   23.1022 C   0  0  0  0  0  0  0  0  0  0  0  0
   10.3958   12.0380   23.6670 C   0  0  0  0  0  0  0  0  0  0  0  0
    9.3369   12.1926   24.5529 C   0  0  0  0  0  0  0  0  0  0  0  0
   11.3606   13.0766   23.1856 C   0  0  0  0  0  0  0  0  0  0  0  0
   12.1709   12.3795   22.0976 C   0  0  0  0  0  0  0  0  0  0  0  0
   11.7243   10.9323   22.1387 C   0  0  0  0  0  0  0  0  0  0  0  0
   12.1325    9.9977   21.4710 O   0  0  0  0  0  0  0  0  0  0  0  0
  2  1  1  1
  2  3  1  0
  2  4  1  0
  4  5  1  0
  5  6  1  0
  6  7  2  0
  7  8  1  0
  8  9  2  0
  9 10  1  0
 10 11  2  0
 10 12  1  0
 12 13  1  0
 13 14  1  0
 14 15  2  0
 11  6  1  0
 14  9  1  0
M  END
>  <Crystalforms alias>  (254) 
nan

>  <original ID>  (254) 
ZVZPOGVDSDWYQI-MRVPVSSYSA-N

>  <alias>  (254) 
None

>  <distance_score>  (254) 
1.155017

>  <CanonSites upload name>  (254) 
nan

>  <CanonSites alias>  (254) 
nan

>  <ConformerSites alias>  (254) 
nan

>  <observation_longname>  (254) 
nan

>  <CrystalformSites alias>  (254) 
nan

>  <tags>  (254) 
[]

>  <ref_mols>  (254) 
A1775a

>  <ref_pdb>  (254) 
A1775a

>  <Quatassemblies upload name>  (254) 
nan

>  <inchikey>  (254) 
ZVZPOGVDSDWYQI-MRVPVSSYSA-N

>  <Experiment code>  (254) 
nan

>  <Quatassemblies alias>  (254) 
nan

>  <Crystalforms upload name>  (254) 
nan

>  <Centroid res>  (254) 
nan

>  <ConformerSites upload name>  (254) 
nan

>  <energy_score>  (254) 
-17.800593

>  <original SMILES>  (254) 
C[C@@H](O)COc1ccc2c(c1)CCC2=O

>  <exports>  (254) 
nan

>  <CrystalformSites upload name>  (254) 
nan

>  <name>  (254) 
ZVZPOGVDSDWYQI-MRVPVSSYSA-N

>  <HIPPO ID>  (254) 
143398

$$$$
ZVZPOGVDSDWYQI-QMMMGPOBSA-N
     RDKit          3D

 15 16  0  0  0  0  0  0  0  0999 V2000
    4.9629   11.2348   26.5602 C   0  0  0  0  0  0  0  0  0  0  0  0
    5.9854   12.2454   26.9991 C   0  0  2  0  0  0  0  0  0  0  0  0
    5.3086   13.4907   27.1541 O   0  0  0  0  0  0  0  0  0  0  0  0
    7.1336   12.3850   25.9976 C   0  0  0  0  0  0  0  0  0  0  0  0
    7.6834   11.1126   25.6854 O   0  0  0  0  0  0  0  0  0  0  0  0
    8.7171   11.1052   24.7899 C   0  0  0  0  0  0  0  0  0  0  0  0
    8.9869    9.8398   24.2401 C   0  0  0  0  0  0  0  0  0  0  0  0
   10.0192    9.6500   23.3327 C   0  0  0  0  0  0  0  0  0  0  0  0
   10.7477   10.7645   22.9873 C   0  0  0  0  0  0  0  0  0  0  0  0
   10.5109   12.0284   23.5071 C   0  0  0  0  0  0  0  0  0  0  0  0
    9.4925   12.2123   24.4274 C   0  0  0  0  0  0  0  0  0  0  0  0
   11.4419   13.0558   22.9434 C   0  0  0  0  0  0  0  0  0  0  0  0
   12.2911   12.2940   21.9329 C   0  0  0  0  0  0  0  0  0  0  0  0
   11.8140   10.8600   22.0152 C   0  0  0  0  0  0  0  0  0  0  0  0
   12.2014    9.9007   21.3725 O   0  0  0  0  0  0  0  0  0  0  0  0
  2  1  1  6
  2  3  1  0
  2  4  1  0
  4  5  1  0
  5  6  1  0
  6  7  2  0
  7  8  1  0
  8  9  2  0
  9 10  1  0
 10 11  2  0
 10 12  1  0
 12 13  1  0
 13 14  1  0
 14 15  2  0
 11  6  1  0
 14  9  1  0
M  END
>  <Crystalforms alias>  (255) 
nan

>  <original ID>  (255) 
ZVZPOGVDSDWYQI-QMMMGPOBSA-N

>  <alias>  (255) 
None

>  <distance_score>  (255) 
1.094798

>  <CanonSites upload name>  (255) 
nan

>  <CanonSites alias>  (255) 
nan

>  <ConformerSites alias>  (255) 
nan

>  <observation_longname>  (255) 
nan

>  <CrystalformSites alias>  (255) 
nan

>  <tags>  (255) 
[]

>  <ref_mols>  (255) 
A1775a

>  <ref_pdb>  (255) 
A1775a

>  <Quatassemblies upload name>  (255) 
nan

>  <inchikey>  (255) 
ZVZPOGVDSDWYQI-QMMMGPOBSA-N

>  <Experiment code>  (255) 
nan

>  <Quatassemblies alias>  (255) 
nan

>  <Crystalforms upload name>  (255) 
nan

>  <Centroid res>  (255) 
nan

>  <ConformerSites upload name>  (255) 
nan

>  <energy_score>  (255) 
-14.357235

>  <original SMILES>  (255) 
C[C@H](O)COc1ccc2c(c1)CCC2=O

>  <exports>  (255) 
nan

>  <CrystalformSites upload name>  (255) 
nan

>  <name>  (255) 
ZVZPOGVDSDWYQI-QMMMGPOBSA-N

>  <HIPPO ID>  (255) 
143399

$$$$
XDSPFWJIHCHZHC-UHFFFAOYSA-N
     RDKit          3D

 16 16  0  0  0  0  0  0  0  0999 V2000
    4.9883   13.1306   27.6643 C   0  0  0  0  0  0  0  0  0  0  0  0
    5.3749   12.0855   26.6298 C   0  0  0  0  0  0  0  0  0  0  0  0
    5.0970   10.6844   27.1414 C   0  0  0  0  0  0  0  0  0  0  0  0
    4.5469   12.3017   25.5663 F   0  0  0  0  0  0  0  0  0  0  0  0
    6.8152   12.2845   26.1341 C   0  0  0  0  0  0  0  0  0  0  0  0
    7.3581   11.0569   25.6540 O   0  0  0  0  0  0  0  0  0  0  0  0
    8.4825   11.1092   24.8882 C   0  0  0  0  0  0  0  0  0  0  0  0
    9.2680   12.2297   24.6400 C   0  0  0  0  0  0  0  0  0  0  0  0
   10.3490   12.1431   23.7570 C   0  0  0  0  0  0  0  0  0  0  0  0
   10.6570   10.9249   23.1420 C   0  0  0  0  0  0  0  0  0  0  0  0
   11.7116   10.7863   22.1107 C   0  0  0  0  0  0  0  0  0  0  0  0
   11.8784    9.6727   21.6136 O   0  0  0  0  0  0  0  0  0  0  0  0
   12.4821   12.0289   21.7028 C   0  0  0  0  0  0  0  0  0  0  0  0
   13.7094   11.6004   20.4844 Cl  0  0  0  0  0  0  0  0  0  0  0  0
    9.9109    9.7885   23.4499 C   0  0  0  0  0  0  0  0  0  0  0  0
    8.8286    9.8913   24.3096 C   0  0  0  0  0  0  0  0  0  0  0  0
  1  2  1  0
  2  3  1  0
  2  4  1  0
  2  5  1  0
  5  6  1  0
  6  7  1  0
  7  8  2  0
  8  9  1  0
  9 10  2  0
 10 11  1  0
 11 12  2  0
 11 13  1  0
 13 14  1  0
 10 15  1  0
 15 16  2  0
 16  7  1  0
M  END
>  <Crystalforms alias>  (256) 
nan

>  <original ID>  (256) 
XDSPFWJIHCHZHC-UHFFFAOYSA-N

>  <alias>  (256) 
None

>  <distance_score>  (256) 
0.39298

>  <CanonSites upload name>  (256) 
nan

>  <CanonSites alias>  (256) 
nan

>  <ConformerSites alias>  (256) 
nan

>  <observation_longname>  (256) 
nan

>  <CrystalformSites alias>  (256) 
nan

>  <tags>  (256) 
[]

>  <ref_mols>  (256) 
A1775a

>  <ref_pdb>  (256) 
A1775a

>  <Quatassemblies upload name>  (256) 
nan

>  <inchikey>  (256) 
XDSPFWJIHCHZHC-UHFFFAOYSA-N

>  <Experiment code>  (256) 
nan

>  <Quatassemblies alias>  (256) 
nan

>  <Crystalforms upload name>  (256) 
nan

>  <Centroid res>  (256) 
nan

>  <ConformerSites upload name>  (256) 
nan

>  <energy_score>  (256) 
-30.917992

>  <original SMILES>  (256) 
CC(C)(F)COc1ccc(C(=O)CCl)cc1

>  <exports>  (256) 
nan

>  <CrystalformSites upload name>  (256) 
nan

>  <name>  (256) 
XDSPFWJIHCHZHC-UHFFFAOYSA-N

>  <HIPPO ID>  (256) 
145067

$$$$
PYVYDHKQIQRRIM-UHFFFAOYSA-N
     RDKit          3D

 16 16  0  0  0  0  0  0  0  0999 V2000
   13.7097   11.6061   20.5425 C   0  0  0  0  0  0  0  0  0  0  0  0
   12.6337   11.9702   21.5696 C   0  0  0  0  0  0  0  0  0  0  0  0
   11.8173   10.7537   21.9965 C   0  0  0  0  0  0  0  0  0  0  0  0
   11.9595    9.6436   21.4855 O   0  0  0  0  0  0  0  0  0  0  0  0
   10.7731   10.9030   23.0353 C   0  0  0  0  0  0  0  0  0  0  0  0
   10.0179    9.7730   23.3575 C   0  0  0  0  0  0  0  0  0  0  0  0
    8.9576    9.8810   24.2444 C   0  0  0  0  0  0  0  0  0  0  0  0
    8.6485   11.1029   24.8316 C   0  0  0  0  0  0  0  0  0  0  0  0
    7.5580   11.0749   25.6519 O   0  0  0  0  0  0  0  0  0  0  0  0
    6.9816   12.3413   25.9530 C   0  0  0  0  0  0  0  0  0  0  0  0
    5.6058   12.2105   26.6213 C   0  0  0  0  0  0  0  0  0  0  0  0
    5.2448   10.7883   27.0277 C   0  0  0  0  0  0  0  0  0  0  0  0
    4.5383   12.8733   25.7744 C   0  0  0  0  0  0  0  0  0  0  0  0
    5.6438   12.9527   27.7699 F   0  0  0  0  0  0  0  0  0  0  0  0
    9.4374   12.2197   24.5574 C   0  0  0  0  0  0  0  0  0  0  0  0
   10.4928   12.1247   23.6493 C   0  0  0  0  0  0  0  0  0  0  0  0
  1  2  1  0
  2  3  1  0
  3  4  2  0
  3  5  1  0
  5  6  2  0
  6  7  1  0
  7  8  2  0
  8  9  1  0
  9 10  1  0
 10 11  1  0
 11 12  1  0
 11 13  1  0
 11 14  1  0
  8 15  1  0
 15 16  2  0
 16  5  1  0
M  END
>  <Crystalforms alias>  (257) 
nan

>  <original ID>  (257) 
PYVYDHKQIQRRIM-UHFFFAOYSA-N

>  <alias>  (257) 
None

>  <distance_score>  (257) 
0.334023

>  <CanonSites upload name>  (257) 
nan

>  <CanonSites alias>  (257) 
nan

>  <ConformerSites alias>  (257) 
nan

>  <observation_longname>  (257) 
nan

>  <CrystalformSites alias>  (257) 
nan

>  <tags>  (257) 
[]

>  <ref_mols>  (257) 
A1775a

>  <ref_pdb>  (257) 
A1775a

>  <Quatassemblies upload name>  (257) 
nan

>  <inchikey>  (257) 
PYVYDHKQIQRRIM-UHFFFAOYSA-N

>  <Experiment code>  (257) 
nan

>  <Quatassemblies alias>  (257) 
nan

>  <Crystalforms upload name>  (257) 
nan

>  <Centroid res>  (257) 
nan

>  <ConformerSites upload name>  (257) 
nan

>  <energy_score>  (257) 
-11.567514

>  <original SMILES>  (257) 
CCC(=O)c1ccc(OCC(C)(C)F)cc1

>  <exports>  (257) 
nan

>  <CrystalformSites upload name>  (257) 
nan

>  <name>  (257) 
PYVYDHKQIQRRIM-UHFFFAOYSA-N

>  <HIPPO ID>  (257) 
145123

$$$$
JYHZQBSBJFHAII-UHFFFAOYSA-N
     RDKit          3D

 16 17  0  0  0  0  0  0  0  0999 V2000
   12.2141    9.9426   21.4136 O   0  0  0  0  0  0  0  0  0  0  0  0
   11.7889   10.8895   22.0509 C   0  0  0  0  0  0  0  0  0  0  0  0
   12.2253   12.3367   21.9802 C   0  0  0  0  0  0  0  0  0  0  0  0
   11.2268   13.0943   22.8476 C   0  0  0  0  0  0  0  0  0  0  0  0
   10.3771   12.0287   23.4683 C   0  0  0  0  0  0  0  0  0  0  0  0
    9.3166   12.1846   24.3481 C   0  0  0  0  0  0  0  0  0  0  0  0
    8.5916   11.0480   24.7194 C   0  0  0  0  0  0  0  0  0  0  0  0
    7.4983   11.0188   25.5394 O   0  0  0  0  0  0  0  0  0  0  0  0
    6.9367   12.2740   25.9163 C   0  0  0  0  0  0  0  0  0  0  0  0
    5.7240   12.0795   26.8085 C   0  0  0  0  0  0  0  0  0  0  0  0
    6.0347   11.3717   27.9164 F   0  0  0  0  0  0  0  0  0  0  0  0
    5.2579   13.2821   27.2192 F   0  0  0  0  0  0  0  0  0  0  0  0
    4.7246   11.4481   26.1702 F   0  0  0  0  0  0  0  0  0  0  0  0
    8.9597    9.7837   24.2259 C   0  0  0  0  0  0  0  0  0  0  0  0
   10.0366    9.6213   23.3666 C   0  0  0  0  0  0  0  0  0  0  0  0
   10.7091   10.7636   23.0045 C   0  0  0  0  0  0  0  0  0  0  0  0
  1  2  2  0
  2  3  1  0
  3  4  1  0
  4  5  1  0
  5  6  2  0
  6  7  1  0
  7  8  1  0
  8  9  1  0
  9 10  1  0
 10 11  1  0
 10 12  1  0
 10 13  1  0
  7 14  2  0
 14 15  1  0
 15 16  2  0
 16  2  1  0
 16  5  1  0
M  END
>  <Crystalforms alias>  (258) 
nan

>  <original ID>  (258) 
JYHZQBSBJFHAII-UHFFFAOYSA-N

>  <alias>  (258) 
None

>  <distance_score>  (258) 
1.122989

>  <CanonSites upload name>  (258) 
nan

>  <CanonSites alias>  (258) 
nan

>  <ConformerSites alias>  (258) 
nan

>  <observation_longname>  (258) 
nan

>  <CrystalformSites alias>  (258) 
nan

>  <tags>  (258) 
[]

>  <ref_mols>  (258) 
A1775a

>  <ref_pdb>  (258) 
A1775a

>  <Quatassemblies upload name>  (258) 
nan

>  <inchikey>  (258) 
JYHZQBSBJFHAII-UHFFFAOYSA-N

>  <Experiment code>  (258) 
nan

>  <Quatassemblies alias>  (258) 
nan

>  <Crystalforms upload name>  (258) 
nan

>  <Centroid res>  (258) 
nan

>  <ConformerSites upload name>  (258) 
nan

>  <energy_score>  (258) 
-28.728506

>  <original SMILES>  (258) 
O=C1CCc2cc(OCC(F)(F)F)ccc21

>  <exports>  (258) 
nan

>  <CrystalformSites upload name>  (258) 
nan

>  <name>  (258) 
JYHZQBSBJFHAII-UHFFFAOYSA-N

>  <HIPPO ID>  (258) 
145133

$$$$
BEMYTWYYWKGKFZ-UHFFFAOYSA-N
     RDKit          3D

 16 16  0  0  0  0  0  0  0  0999 V2000
    5.6453   10.9902   28.0078 C   0  0  0  0  0  0  0  0  0  0  0  0
    5.5503   12.1167   26.9928 C   0  0  0  0  0  0  0  0  0  0  0  0
    5.0524   13.3791   27.6756 C   0  0  0  0  0  0  0  0  0  0  0  0
    4.5926   11.7987   26.0802 F   0  0  0  0  0  0  0  0  0  0  0  0
    6.8614   12.3411   26.2238 C   0  0  0  0  0  0  0  0  0  0  0  0
    7.3867   11.1012   25.7440 O   0  0  0  0  0  0  0  0  0  0  0  0
    8.4799   11.1508   24.9274 C   0  0  0  0  0  0  0  0  0  0  0  0
    8.8182    9.9322   24.3421 C   0  0  0  0  0  0  0  0  0  0  0  0
    9.8919    9.8254   23.4660 C   0  0  0  0  0  0  0  0  0  0  0  0
   10.6372   10.9590   23.1460 C   0  0  0  0  0  0  0  0  0  0  0  0
   11.7041   10.8180   22.1258 C   0  0  0  0  0  0  0  0  0  0  0  0
   11.9067    9.7116   21.6185 O   0  0  0  0  0  0  0  0  0  0  0  0
   12.4970   12.0610   21.7067 C   0  0  0  0  0  0  0  0  0  0  0  0
   13.5286   11.6794   20.7150 N   0  0  0  0  0  0  0  0  0  0  0  0
   10.3258   12.1812   23.7502 C   0  0  0  0  0  0  0  0  0  0  0  0
    9.2548   12.2722   24.6473 C   0  0  0  0  0  0  0  0  0  0  0  0
  1  2  1  0
  2  3  1  0
  2  4  1  0
  2  5  1  0
  5  6  1  0
  6  7  1  0
  7  8  2  0
  8  9  1  0
  9 10  2  0
 10 11  1  0
 11 12  2  0
 11 13  1  0
 13 14  1  0
 10 15  1  0
 15 16  2  0
 16  7  1  0
M  END
>  <Crystalforms alias>  (259) 
nan

>  <original ID>  (259) 
BEMYTWYYWKGKFZ-UHFFFAOYSA-N

>  <alias>  (259) 
None

>  <distance_score>  (259) 
0.430551

>  <CanonSites upload name>  (259) 
nan

>  <CanonSites alias>  (259) 
nan

>  <ConformerSites alias>  (259) 
nan

>  <observation_longname>  (259) 
nan

>  <CrystalformSites alias>  (259) 
nan

>  <tags>  (259) 
[]

>  <ref_mols>  (259) 
A1775a

>  <ref_pdb>  (259) 
A1775a

>  <Quatassemblies upload name>  (259) 
nan

>  <inchikey>  (259) 
BEMYTWYYWKGKFZ-UHFFFAOYSA-N

>  <Experiment code>  (259) 
nan

>  <Quatassemblies alias>  (259) 
nan

>  <Crystalforms upload name>  (259) 
nan

>  <Centroid res>  (259) 
nan

>  <ConformerSites upload name>  (259) 
nan

>  <energy_score>  (259) 
-33.502602

>  <original SMILES>  (259) 
CC(C)(F)COc1ccc(C(=O)CN)cc1

>  <exports>  (259) 
nan

>  <CrystalformSites upload name>  (259) 
nan

>  <name>  (259) 
BEMYTWYYWKGKFZ-UHFFFAOYSA-N

>  <HIPPO ID>  (259) 
145179

$$$$
IIRLNFRKCYDHBG-UHFFFAOYSA-N
     RDKit          3D

 16 17  0  0  0  0  0  0  0  0999 V2000
    4.9448   13.4723   27.3294 C   0  0  0  0  0  0  0  0  0  0  0  0
    5.5759   12.1698   26.8685 C   0  0  0  0  0  0  0  0  0  0  0  0
    5.7468   11.2411   28.0598 C   0  0  0  0  0  0  0  0  0  0  0  0
    4.6707   11.6144   26.0201 F   0  0  0  0  0  0  0  0  0  0  0  0
    6.8828   12.3748   26.0833 C   0  0  0  0  0  0  0  0  0  0  0  0
    7.4625   11.1151   25.7318 O   0  0  0  0  0  0  0  0  0  0  0  0
    8.5397   11.1282   24.8869 C   0  0  0  0  0  0  0  0  0  0  0  0
    8.8341    9.8751   24.3185 C   0  0  0  0  0  0  0  0  0  0  0  0
    9.8867    9.7008   23.4284 C   0  0  0  0  0  0  0  0  0  0  0  0
   10.6231   10.8196   23.1204 C   0  0  0  0  0  0  0  0  0  0  0  0
   10.3792   12.0684   23.6768 C   0  0  0  0  0  0  0  0  0  0  0  0
    9.3354   12.2357   24.5793 C   0  0  0  0  0  0  0  0  0  0  0  0
   11.3448   13.0981   23.1775 C   0  0  0  0  0  0  0  0  0  0  0  0
   12.1573   12.3822   22.1036 C   0  0  0  0  0  0  0  0  0  0  0  0
   11.6976   10.9389   22.1558 C   0  0  0  0  0  0  0  0  0  0  0  0
   12.1002    9.9952   21.4974 O   0  0  0  0  0  0  0  0  0  0  0  0
  1  2  1  0
  2  3  1  0
  2  4  1  0
  2  5  1  0
  5  6  1  0
  6  7  1  0
  7  8  2  0
  8  9  1  0
  9 10  2  0
 10 11  1  0
 11 12  2  0
 11 13  1  0
 13 14  1  0
 14 15  1  0
 15 16  2  0
 12  7  1  0
 15 10  1  0
M  END
>  <Crystalforms alias>  (260) 
nan

>  <original ID>  (260) 
IIRLNFRKCYDHBG-UHFFFAOYSA-N

>  <alias>  (260) 
None

>  <distance_score>  (260) 
1.16684

>  <CanonSites upload name>  (260) 
nan

>  <CanonSites alias>  (260) 
nan

>  <ConformerSites alias>  (260) 
nan

>  <observation_longname>  (260) 
nan

>  <CrystalformSites alias>  (260) 
nan

>  <tags>  (260) 
[]

>  <ref_mols>  (260) 
A1775a

>  <ref_pdb>  (260) 
A1775a

>  <Quatassemblies upload name>  (260) 
nan

>  <inchikey>  (260) 
IIRLNFRKCYDHBG-UHFFFAOYSA-N

>  <Experiment code>  (260) 
nan

>  <Quatassemblies alias>  (260) 
nan

>  <Crystalforms upload name>  (260) 
nan

>  <Centroid res>  (260) 
nan

>  <ConformerSites upload name>  (260) 
nan

>  <energy_score>  (260) 
-17.691256

>  <original SMILES>  (260) 
CC(C)(F)COc1ccc2c(c1)CCC2=O

>  <exports>  (260) 
nan

>  <CrystalformSites upload name>  (260) 
nan

>  <name>  (260) 
IIRLNFRKCYDHBG-UHFFFAOYSA-N

>  <HIPPO ID>  (260) 
145300

$$$$
NDZVGFPTHXLTQD-JTQLQIEISA-N
     RDKit          3D

 16 16  0  0  0  0  0  0  0  0999 V2000
    4.2303   10.5748   28.4964 C   0  0  0  0  0  0  0  0  0  0  0  0
    5.4466   10.6753   27.5873 C   0  0  0  0  0  0  0  0  0  0  0  0
    5.6911   12.0920   27.0472 C   0  0  2  0  0  0  0  0  0  0  0  0
    4.6373   12.5327   26.1352 N   0  0  0  0  0  0  0  0  0  0  0  0
    7.0488   12.2289   26.3322 C   0  0  0  0  0  0  0  0  0  0  0  0
    7.3996   11.0347   25.6416 O   0  0  0  0  0  0  0  0  0  0  0  0
    8.5282   11.0796   24.8754 C   0  0  0  0  0  0  0  0  0  0  0  0
    9.3238   12.1992   24.6504 C   0  0  0  0  0  0  0  0  0  0  0  0
   10.3984   12.1253   23.7645 C   0  0  0  0  0  0  0  0  0  0  0  0
   10.6922   10.9219   23.1165 C   0  0  0  0  0  0  0  0  0  0  0  0
   11.7469   10.8227   22.0826 C   0  0  0  0  0  0  0  0  0  0  0  0
   11.9581    9.7376   21.5372 O   0  0  0  0  0  0  0  0  0  0  0  0
   12.5107   12.0944   21.7070 C   0  0  0  0  0  0  0  0  0  0  0  0
   13.5284   11.7918   20.6815 N   0  0  0  0  0  0  0  0  0  0  0  0
    9.9395    9.7830   23.3944 C   0  0  0  0  0  0  0  0  0  0  0  0
    8.8593    9.8732   24.2622 C   0  0  0  0  0  0  0  0  0  0  0  0
  1  2  1  0
  2  3  1  0
  3  4  1  6
  3  5  1  0
  5  6  1  0
  6  7  1  0
  7  8  2  0
  8  9  1  0
  9 10  2  0
 10 11  1  0
 11 12  2  0
 11 13  1  0
 13 14  1  0
 10 15  1  0
 15 16  2  0
 16  7  1  0
M  END
>  <Crystalforms alias>  (261) 
nan

>  <original ID>  (261) 
NDZVGFPTHXLTQD-JTQLQIEISA-N

>  <alias>  (261) 
None

>  <distance_score>  (261) 
0.410088

>  <CanonSites upload name>  (261) 
nan

>  <CanonSites alias>  (261) 
nan

>  <ConformerSites alias>  (261) 
nan

>  <observation_longname>  (261) 
nan

>  <CrystalformSites alias>  (261) 
nan

>  <tags>  (261) 
[]

>  <ref_mols>  (261) 
A1775a

>  <ref_pdb>  (261) 
A1775a

>  <Quatassemblies upload name>  (261) 
nan

>  <inchikey>  (261) 
NDZVGFPTHXLTQD-JTQLQIEISA-N

>  <Experiment code>  (261) 
nan

>  <Quatassemblies alias>  (261) 
nan

>  <Crystalforms upload name>  (261) 
nan

>  <Centroid res>  (261) 
nan

>  <ConformerSites upload name>  (261) 
nan

>  <energy_score>  (261) 
-20.050246

>  <original SMILES>  (261) 
CC[C@H](N)COc1ccc(C(=O)CN)cc1

>  <exports>  (261) 
nan

>  <CrystalformSites upload name>  (261) 
nan

>  <name>  (261) 
NDZVGFPTHXLTQD-JTQLQIEISA-N

>  <HIPPO ID>  (261) 
146636

$$$$
NDZVGFPTHXLTQD-SNVBAGLBSA-N
     RDKit          3D

 16 16  0  0  0  0  0  0  0  0999 V2000
    4.3129   13.6186   25.2868 C   0  0  0  0  0  0  0  0  0  0  0  0
    4.5951   13.0959   26.6888 C   0  0  0  0  0  0  0  0  0  0  0  0
    5.6747   12.0044   26.8062 C   0  0  1  0  0  0  0  0  0  0  0  0
    5.0765   10.6713   26.6724 N   0  0  0  0  0  0  0  0  0  0  0  0
    6.8397   12.2043   25.8221 C   0  0  0  0  0  0  0  0  0  0  0  0
    7.7015   11.0667   25.8668 O   0  0  0  0  0  0  0  0  0  0  0  0
    8.6904   11.0963   24.9264 C   0  0  0  0  0  0  0  0  0  0  0  0
    8.9620    9.8892   24.2912 C   0  0  0  0  0  0  0  0  0  0  0  0
    9.9882    9.7992   23.3617 C   0  0  0  0  0  0  0  0  0  0  0  0
   10.7386   10.9340   23.0509 C   0  0  0  0  0  0  0  0  0  0  0  0
   11.7882   10.8098   22.0147 C   0  0  0  0  0  0  0  0  0  0  0  0
   11.9812    9.7135   21.4864 O   0  0  0  0  0  0  0  0  0  0  0  0
   12.5740   12.0633   21.6265 C   0  0  0  0  0  0  0  0  0  0  0  0
   13.6145   11.7350   20.6370 N   0  0  0  0  0  0  0  0  0  0  0  0
   10.4725   12.1468   23.6942 C   0  0  0  0  0  0  0  0  0  0  0  0
    9.4562   12.2233   24.6423 C   0  0  0  0  0  0  0  0  0  0  0  0
  1  2  1  0
  2  3  1  0
  3  4  1  6
  3  5  1  0
  5  6  1  0
  6  7  1  0
  7  8  2  0
  8  9  1  0
  9 10  2  0
 10 11  1  0
 11 12  2  0
 11 13  1  0
 13 14  1  0
 10 15  1  0
 15 16  2  0
 16  7  1  0
M  END
>  <Crystalforms alias>  (262) 
nan

>  <original ID>  (262) 
NDZVGFPTHXLTQD-SNVBAGLBSA-N

>  <alias>  (262) 
None

>  <distance_score>  (262) 
0.38969

>  <CanonSites upload name>  (262) 
nan

>  <CanonSites alias>  (262) 
nan

>  <ConformerSites alias>  (262) 
nan

>  <observation_longname>  (262) 
nan

>  <CrystalformSites alias>  (262) 
nan

>  <tags>  (262) 
[]

>  <ref_mols>  (262) 
A1775a

>  <ref_pdb>  (262) 
A1775a

>  <Quatassemblies upload name>  (262) 
nan

>  <inchikey>  (262) 
NDZVGFPTHXLTQD-SNVBAGLBSA-N

>  <Experiment code>  (262) 
nan

>  <Quatassemblies alias>  (262) 
nan

>  <Crystalforms upload name>  (262) 
nan

>  <Centroid res>  (262) 
nan

>  <ConformerSites upload name>  (262) 
nan

>  <energy_score>  (262) 
-54.409532

>  <original SMILES>  (262) 
CC[C@@H](N)COc1ccc(C(=O)CN)cc1

>  <exports>  (262) 
nan

>  <CrystalformSites upload name>  (262) 
nan

>  <name>  (262) 
NDZVGFPTHXLTQD-SNVBAGLBSA-N

>  <HIPPO ID>  (262) 
146637

$$$$
MXCMLFJOAPQFFK-NSHDSACASA-N
     RDKit          3D

 16 16  0  0  0  0  0  0  0  0999 V2000
   13.6633   11.6060   20.5759 C   0  0  0  0  0  0  0  0  0  0  0  0
   12.5946   11.9819   21.6082 C   0  0  0  0  0  0  0  0  0  0  0  0
   11.7671   10.7735   22.0424 C   0  0  0  0  0  0  0  0  0  0  0  0
   11.8966    9.6603   21.5328 O   0  0  0  0  0  0  0  0  0  0  0  0
   10.7300   10.9386   23.0900 C   0  0  0  0  0  0  0  0  0  0  0  0
   10.4983   12.1527   23.7401 C   0  0  0  0  0  0  0  0  0  0  0  0
    9.4700   12.2588   24.6823 C   0  0  0  0  0  0  0  0  0  0  0  0
    8.6552   11.1621   24.9577 C   0  0  0  0  0  0  0  0  0  0  0  0
    7.6026   11.1282   25.8261 O   0  0  0  0  0  0  0  0  0  0  0  0
    7.2759   12.3372   26.5039 C   0  0  0  0  0  0  0  0  0  0  0  0
    5.9017   12.1968   27.1761 C   0  0  1  0  0  0  0  0  0  0  0  0
    5.5614   13.3499   28.0160 N   0  0  0  0  0  0  0  0  0  0  0  0
    4.8019   12.0104   26.1427 C   0  0  0  0  0  0  0  0  0  0  0  0
    4.8371   13.0134   24.9987 C   0  0  0  0  0  0  0  0  0  0  0  0
    8.8998    9.9537   24.3111 C   0  0  0  0  0  0  0  0  0  0  0  0
    9.9369    9.8311   23.3957 C   0  0  0  0  0  0  0  0  0  0  0  0
  1  2  1  0
  2  3  1  0
  3  4  2  0
  3  5  1  0
  5  6  2  0
  6  7  1  0
  7  8  2  0
  8  9  1  0
  9 10  1  0
 10 11  1  0
 11 12  1  6
 11 13  1  0
 13 14  1  0
  8 15  1  0
 15 16  2  0
 16  5  1  0
M  END
>  <Crystalforms alias>  (263) 
nan

>  <original ID>  (263) 
MXCMLFJOAPQFFK-NSHDSACASA-N

>  <alias>  (263) 
None

>  <distance_score>  (263) 
0.433

>  <CanonSites upload name>  (263) 
nan

>  <CanonSites alias>  (263) 
nan

>  <ConformerSites alias>  (263) 
nan

>  <observation_longname>  (263) 
nan

>  <CrystalformSites alias>  (263) 
nan

>  <tags>  (263) 
[]

>  <ref_mols>  (263) 
A1775a

>  <ref_pdb>  (263) 
A1775a

>  <Quatassemblies upload name>  (263) 
nan

>  <inchikey>  (263) 
MXCMLFJOAPQFFK-NSHDSACASA-N

>  <Experiment code>  (263) 
nan

>  <Quatassemblies alias>  (263) 
nan

>  <Crystalforms upload name>  (263) 
nan

>  <Centroid res>  (263) 
nan

>  <ConformerSites upload name>  (263) 
nan

>  <energy_score>  (263) 
-15.654905

>  <original SMILES>  (263) 
CCC(=O)c1ccc(OC[C@@H](N)CC)cc1

>  <exports>  (263) 
nan

>  <CrystalformSites upload name>  (263) 
nan

>  <name>  (263) 
MXCMLFJOAPQFFK-NSHDSACASA-N

>  <HIPPO ID>  (263) 
146652

$$$$
MXCMLFJOAPQFFK-NSHDSACASA-N
     RDKit          3D

 16 16  0  0  0  0  0  0  0  0999 V2000
   13.6008   11.6049   20.6233 C   0  0  0  0  0  0  0  0  0  0  0  0
   12.5422   12.0052   21.6585 C   0  0  0  0  0  0  0  0  0  0  0  0
   11.6919   10.8165   22.1075 C   0  0  0  0  0  0  0  0  0  0  0  0
   11.8130    9.6910   21.6235 O   0  0  0  0  0  0  0  0  0  0  0  0
   10.6459   11.0236   23.1441 C   0  0  0  0  0  0  0  0  0  0  0  0
    9.8434    9.9304   23.4887 C   0  0  0  0  0  0  0  0  0  0  0  0
    8.8288   10.0786   24.4285 C   0  0  0  0  0  0  0  0  0  0  0  0
    8.6201   11.3073   25.0426 C   0  0  0  0  0  0  0  0  0  0  0  0
    7.7033   11.3763   26.0538 O   0  0  0  0  0  0  0  0  0  0  0  0
    6.5196   12.0733   25.6562 C   0  0  0  0  0  0  0  0  0  0  0  0
    5.3776   11.8012   26.6606 C   0  0  1  0  0  0  0  0  0  0  0  0
    5.1075   10.3622   26.7523 N   0  0  0  0  0  0  0  0  0  0  0  0
    5.6716   12.3900   28.0506 C   0  0  0  0  0  0  0  0  0  0  0  0
    4.4295   12.4827   28.9307 C   0  0  0  0  0  0  0  0  0  0  0  0
    9.4230   12.3973   24.7235 C   0  0  0  0  0  0  0  0  0  0  0  0
   10.4285   12.2606   23.7620 C   0  0  0  0  0  0  0  0  0  0  0  0
  1  2  1  0
  2  3  1  0
  3  4  2  0
  3  5  1  0
  5  6  2  0
  6  7  1  0
  7  8  2  0
  8  9  1  0
  9 10  1  0
 10 11  1  0
 11 12  1  1
 11 13  1  0
 13 14  1  0
  8 15  1  0
 15 16  2  0
 16  5  1  0
M  END
>  <Crystalforms alias>  (264) 
nan

>  <original ID>  (264) 
MXCMLFJOAPQFFK-NSHDSACASA-N

>  <alias>  (264) 
None

>  <distance_score>  (264) 
0.513704

>  <CanonSites upload name>  (264) 
nan

>  <CanonSites alias>  (264) 
nan

>  <ConformerSites alias>  (264) 
nan

>  <observation_longname>  (264) 
nan

>  <CrystalformSites alias>  (264) 
nan

>  <tags>  (264) 
[]

>  <ref_mols>  (264) 
A1775a

>  <ref_pdb>  (264) 
A1775a

>  <Quatassemblies upload name>  (264) 
nan

>  <inchikey>  (264) 
MXCMLFJOAPQFFK-NSHDSACASA-N

>  <Experiment code>  (264) 
nan

>  <Quatassemblies alias>  (264) 
nan

>  <Crystalforms upload name>  (264) 
nan

>  <Centroid res>  (264) 
nan

>  <ConformerSites upload name>  (264) 
nan

>  <energy_score>  (264) 
-39.582565

>  <original SMILES>  (264) 
CCC(=O)c1ccc(OC[C@@H](N)CC)cc1

>  <exports>  (264) 
nan

>  <CrystalformSites upload name>  (264) 
nan

>  <name>  (264) 
MXCMLFJOAPQFFK-NSHDSACASA-N

>  <HIPPO ID>  (264) 
146653

$$$$
OUBVVYKQTLBROG-SNVBAGLBSA-N
     RDKit          3D

 16 17  0  0  0  0  0  0  0  0999 V2000
    4.1772    9.9459   28.0150 C   0  0  0  0  0  0  0  0  0  0  0  0
    5.3373   10.2529   27.0768 C   0  0  0  0  0  0  0  0  0  0  0  0
    5.5121   11.7496   26.7961 C   0  0  1  0  0  0  0  0  0  0  0  0
    5.8810   12.3899   28.0633 N   0  0  0  0  0  0  0  0  0  0  0  0
    6.5629   12.0110   25.6919 C   0  0  0  0  0  0  0  0  0  0  0  0
    7.8144   11.4377   26.0735 O   0  0  0  0  0  0  0  0  0  0  0  0
    8.6812   11.3094   25.0246 C   0  0  0  0  0  0  0  0  0  0  0  0
    8.8003   10.0521   24.4131 C   0  0  0  0  0  0  0  0  0  0  0  0
    9.7800    9.8179   23.4553 C   0  0  0  0  0  0  0  0  0  0  0  0
   10.6072   10.8748   23.1413 C   0  0  0  0  0  0  0  0  0  0  0  0
   10.5142   12.1267   23.7410 C   0  0  0  0  0  0  0  0  0  0  0  0
    9.5463   12.3574   24.7045 C   0  0  0  0  0  0  0  0  0  0  0  0
   11.5899   13.0536   23.2654 C   0  0  0  0  0  0  0  0  0  0  0  0
   12.2012   12.3335   22.0689 C   0  0  0  0  0  0  0  0  0  0  0  0
   11.6695   10.9162   22.1552 C   0  0  0  0  0  0  0  0  0  0  0  0
   12.0118    9.9416   21.5081 O   0  0  0  0  0  0  0  0  0  0  0  0
  1  2  1  0
  2  3  1  0
  3  4  1  1
  3  5  1  0
  5  6  1  0
  6  7  1  0
  7  8  2  0
  8  9  1  0
  9 10  2  0
 10 11  1  0
 11 12  2  0
 11 13  1  0
 13 14  1  0
 14 15  1  0
 15 16  2  0
 12  7  1  0
 15 10  1  0
M  END
>  <Crystalforms alias>  (265) 
nan

>  <original ID>  (265) 
OUBVVYKQTLBROG-SNVBAGLBSA-N

>  <alias>  (265) 
None

>  <distance_score>  (265) 
1.174345

>  <CanonSites upload name>  (265) 
nan

>  <CanonSites alias>  (265) 
nan

>  <ConformerSites alias>  (265) 
nan

>  <observation_longname>  (265) 
nan

>  <CrystalformSites alias>  (265) 
nan

>  <tags>  (265) 
[]

>  <ref_mols>  (265) 
A1775a

>  <ref_pdb>  (265) 
A1775a

>  <Quatassemblies upload name>  (265) 
nan

>  <inchikey>  (265) 
OUBVVYKQTLBROG-SNVBAGLBSA-N

>  <Experiment code>  (265) 
nan

>  <Quatassemblies alias>  (265) 
nan

>  <Crystalforms upload name>  (265) 
nan

>  <Centroid res>  (265) 
nan

>  <ConformerSites upload name>  (265) 
nan

>  <energy_score>  (265) 
-26.999041

>  <original SMILES>  (265) 
CC[C@@H](N)COc1ccc2c(c1)CCC2=O

>  <exports>  (265) 
nan

>  <CrystalformSites upload name>  (265) 
nan

>  <name>  (265) 
OUBVVYKQTLBROG-SNVBAGLBSA-N

>  <HIPPO ID>  (265) 
146655

$$$$
OUBVVYKQTLBROG-JTQLQIEISA-N
     RDKit          3D

 16 17  0  0  0  0  0  0  0  0999 V2000
    4.4988   12.8134   25.7545 C   0  0  0  0  0  0  0  0  0  0  0  0
    4.8826   11.6319   26.6353 C   0  0  0  0  0  0  0  0  0  0  0  0
    6.2235   11.8131   27.3419 C   0  0  2  0  0  0  0  0  0  0  0  0
    6.1120   12.8199   28.4011 N   0  0  0  0  0  0  0  0  0  0  0  0
    7.3425   12.1562   26.3433 C   0  0  0  0  0  0  0  0  0  0  0  0
    7.6262   10.9831   25.5910 O   0  0  0  0  0  0  0  0  0  0  0  0
    8.7011   11.0169   24.7531 C   0  0  0  0  0  0  0  0  0  0  0  0
    8.9920    9.7714   24.1682 C   0  0  0  0  0  0  0  0  0  0  0  0
   10.0427    9.6166   23.2790 C   0  0  0  0  0  0  0  0  0  0  0  0
   10.7621   10.7492   22.9821 C   0  0  0  0  0  0  0  0  0  0  0  0
   10.5067   11.9949   23.5390 C   0  0  0  0  0  0  0  0  0  0  0  0
    9.4707   12.1422   24.4461 C   0  0  0  0  0  0  0  0  0  0  0  0
   11.4374   13.0446   23.0201 C   0  0  0  0  0  0  0  0  0  0  0  0
   12.2767   12.3290   21.9681 C   0  0  0  0  0  0  0  0  0  0  0  0
   11.8284   10.8852   22.0165 C   0  0  0  0  0  0  0  0  0  0  0  0
   12.2370    9.9477   21.3545 O   0  0  0  0  0  0  0  0  0  0  0  0
  1  2  1  0
  2  3  1  0
  3  4  1  1
  3  5  1  0
  5  6  1  0
  6  7  1  0
  7  8  2  0
  8  9  1  0
  9 10  2  0
 10 11  1  0
 11 12  2  0
 11 13  1  0
 13 14  1  0
 14 15  1  0
 15 16  2  0
 12  7  1  0
 15 10  1  0
M  END
>  <Crystalforms alias>  (266) 
nan

>  <original ID>  (266) 
OUBVVYKQTLBROG-JTQLQIEISA-N

>  <alias>  (266) 
None

>  <distance_score>  (266) 
1.134845

>  <CanonSites upload name>  (266) 
nan

>  <CanonSites alias>  (266) 
nan

>  <ConformerSites alias>  (266) 
nan

>  <observation_longname>  (266) 
nan

>  <CrystalformSites alias>  (266) 
nan

>  <tags>  (266) 
[]

>  <ref_mols>  (266) 
A1775a

>  <ref_pdb>  (266) 
A1775a

>  <Quatassemblies upload name>  (266) 
nan

>  <inchikey>  (266) 
OUBVVYKQTLBROG-JTQLQIEISA-N

>  <Experiment code>  (266) 
nan

>  <Quatassemblies alias>  (266) 
nan

>  <Crystalforms upload name>  (266) 
nan

>  <Centroid res>  (266) 
nan

>  <ConformerSites upload name>  (266) 
nan

>  <energy_score>  (266) 
-17.973136

>  <original SMILES>  (266) 
CC[C@H](N)COc1ccc2c(c1)CCC2=O

>  <exports>  (266) 
nan

>  <CrystalformSites upload name>  (266) 
nan

>  <name>  (266) 
OUBVVYKQTLBROG-JTQLQIEISA-N

>  <HIPPO ID>  (266) 
146656

$$$$
ABDJOZLPECNQFQ-JTQLQIEISA-N
     RDKit          3D

 16 16  0  0  0  0  0  0  0  0999 V2000
    4.7661   13.0882   25.0847 C   0  0  0  0  0  0  0  0  0  0  0  0
    4.7564   12.0475   26.2042 C   0  0  0  0  0  0  0  0  0  0  0  0
    5.8699   12.2057   27.2323 C   0  0  2  0  0  0  0  0  0  0  0  0
    5.5746   13.3466   28.1106 N   0  0  0  0  0  0  0  0  0  0  0  0
    7.2341   12.3379   26.5427 C   0  0  0  0  0  0  0  0  0  0  0  0
    7.5413   11.1286   25.8563 O   0  0  0  0  0  0  0  0  0  0  0  0
    8.5992   11.1579   24.9954 C   0  0  0  0  0  0  0  0  0  0  0  0
    9.4185   12.2529   24.7334 C   0  0  0  0  0  0  0  0  0  0  0  0
   10.4496   12.1484   23.7990 C   0  0  0  0  0  0  0  0  0  0  0  0
   10.6789   10.9367   23.1411 C   0  0  0  0  0  0  0  0  0  0  0  0
   11.7178   10.7838   22.0967 C   0  0  0  0  0  0  0  0  0  0  0  0
   11.8682    9.6689   21.5977 O   0  0  0  0  0  0  0  0  0  0  0  0
   12.4968   12.0209   21.6842 C   0  0  0  0  0  0  0  0  0  0  0  0
   13.7234   11.5902   20.4691 Cl  0  0  0  0  0  0  0  0  0  0  0  0
    9.8842    9.8288   23.4348 C   0  0  0  0  0  0  0  0  0  0  0  0
    8.8440    9.9515   24.3451 C   0  0  0  0  0  0  0  0  0  0  0  0
  1  2  1  0
  2  3  1  0
  3  4  1  6
  3  5  1  0
  5  6  1  0
  6  7  1  0
  7  8  2  0
  8  9  1  0
  9 10  2  0
 10 11  1  0
 11 12  2  0
 11 13  1  0
 13 14  1  0
 10 15  1  0
 15 16  2  0
 16  7  1  0
M  END
>  <Crystalforms alias>  (267) 
nan

>  <original ID>  (267) 
ABDJOZLPECNQFQ-JTQLQIEISA-N

>  <alias>  (267) 
None

>  <distance_score>  (267) 
0.459694

>  <CanonSites upload name>  (267) 
nan

>  <CanonSites alias>  (267) 
nan

>  <ConformerSites alias>  (267) 
nan

>  <observation_longname>  (267) 
nan

>  <CrystalformSites alias>  (267) 
nan

>  <tags>  (267) 
[]

>  <ref_mols>  (267) 
A1775a

>  <ref_pdb>  (267) 
A1775a

>  <Quatassemblies upload name>  (267) 
nan

>  <inchikey>  (267) 
ABDJOZLPECNQFQ-JTQLQIEISA-N

>  <Experiment code>  (267) 
nan

>  <Quatassemblies alias>  (267) 
nan

>  <Crystalforms upload name>  (267) 
nan

>  <Centroid res>  (267) 
nan

>  <ConformerSites upload name>  (267) 
nan

>  <energy_score>  (267) 
-9.509351

>  <original SMILES>  (267) 
CC[C@H](N)COc1ccc(C(=O)CCl)cc1

>  <exports>  (267) 
nan

>  <CrystalformSites upload name>  (267) 
nan

>  <name>  (267) 
ABDJOZLPECNQFQ-JTQLQIEISA-N

>  <HIPPO ID>  (267) 
146663

$$$$
ABDJOZLPECNQFQ-JTQLQIEISA-N
     RDKit          3D

 16 16  0  0  0  0  0  0  0  0999 V2000
    4.4639   14.0814   26.5726 C   0  0  0  0  0  0  0  0  0  0  0  0
    4.2490   12.6538   26.1691 C   0  0  0  0  0  0  0  0  0  0  0  0
    5.4038   11.6878   26.4255 C   0  0  2  0  0  0  0  0  0  0  0  0
    5.5885   11.4267   27.8578 N   0  0  0  0  0  0  0  0  0  0  0  0
    6.7162   12.1414   25.7762 C   0  0  0  0  0  0  0  0  0  0  0  0
    7.5838   11.0079   25.7799 O   0  0  0  0  0  0  0  0  0  0  0  0
    8.6084   11.0645   24.8893 C   0  0  0  0  0  0  0  0  0  0  0  0
    9.3512   12.2059   24.6102 C   0  0  0  0  0  0  0  0  0  0  0  0
   10.3968   12.1371   23.6910 C   0  0  0  0  0  0  0  0  0  0  0  0
   10.7043   10.9182   23.0755 C   0  0  0  0  0  0  0  0  0  0  0  0
   11.7581   10.7846   22.0476 C   0  0  0  0  0  0  0  0  0  0  0  0
   11.9259    9.6732   21.5463 O   0  0  0  0  0  0  0  0  0  0  0  0
   12.5300   12.0273   21.6515 C   0  0  0  0  0  0  0  0  0  0  0  0
   13.7654   11.6025   20.4444 Cl  0  0  0  0  0  0  0  0  0  0  0  0
    9.9767    9.7705   23.3913 C   0  0  0  0  0  0  0  0  0  0  0  0
    8.9285    9.8531   24.2890 C   0  0  0  0  0  0  0  0  0  0  0  0
  1  2  1  0
  2  3  1  0
  3  4  1  1
  3  5  1  0
  5  6  1  0
  6  7  1  0
  7  8  2  0
  8  9  1  0
  9 10  2  0
 10 11  1  0
 11 12  2  0
 11 13  1  0
 13 14  1  0
 10 15  1  0
 15 16  2  0
 16  7  1  0
M  END
>  <Crystalforms alias>  (268) 
nan

>  <original ID>  (268) 
ABDJOZLPECNQFQ-JTQLQIEISA-N

>  <alias>  (268) 
None

>  <distance_score>  (268) 
0.40098

>  <CanonSites upload name>  (268) 
nan

>  <CanonSites alias>  (268) 
nan

>  <ConformerSites alias>  (268) 
nan

>  <observation_longname>  (268) 
nan

>  <CrystalformSites alias>  (268) 
nan

>  <tags>  (268) 
[]

>  <ref_mols>  (268) 
A1775a

>  <ref_pdb>  (268) 
A1775a

>  <Quatassemblies upload name>  (268) 
nan

>  <inchikey>  (268) 
ABDJOZLPECNQFQ-JTQLQIEISA-N

>  <Experiment code>  (268) 
nan

>  <Quatassemblies alias>  (268) 
nan

>  <Crystalforms upload name>  (268) 
nan

>  <Centroid res>  (268) 
nan

>  <ConformerSites upload name>  (268) 
nan

>  <energy_score>  (268) 
-18.481247

>  <original SMILES>  (268) 
CC[C@H](N)COc1ccc(C(=O)CCl)cc1

>  <exports>  (268) 
nan

>  <CrystalformSites upload name>  (268) 
nan

>  <name>  (268) 
ABDJOZLPECNQFQ-JTQLQIEISA-N

>  <HIPPO ID>  (268) 
146664

$$$$
DFNCXENRXWVYNA-UHFFFAOYSA-N
     RDKit          3D

 16 16  0  0  0  0  0  0  0  0999 V2000
   13.5030   11.8045   20.7076 N   0  0  0  0  0  0  0  0  0  0  0  0
   12.4869   12.1064   21.7346 C   0  0  0  0  0  0  0  0  0  0  0  0
   11.7259   10.8332   22.1076 C   0  0  0  0  0  0  0  0  0  0  0  0
   11.9440    9.7480   21.5652 O   0  0  0  0  0  0  0  0  0  0  0  0
   10.6639   10.9290   23.1345 C   0  0  0  0  0  0  0  0  0  0  0  0
   10.3422   12.1334   23.7691 C   0  0  0  0  0  0  0  0  0  0  0  0
    9.2529   12.1994   24.6403 C   0  0  0  0  0  0  0  0  0  0  0  0
    8.4728   11.0693   24.8622 C   0  0  0  0  0  0  0  0  0  0  0  0
    7.3315   11.0076   25.6059 O   0  0  0  0  0  0  0  0  0  0  0  0
    6.8612   12.2264   26.1809 C   0  0  0  0  0  0  0  0  0  0  0  0
    5.5119   12.0334   26.8491 C   0  0  0  0  0  0  0  0  0  0  0  0
    4.5021   12.1807   25.9687 F   0  0  0  0  0  0  0  0  0  0  0  0
    5.3974   10.8175   27.4218 F   0  0  0  0  0  0  0  0  0  0  0  0
    5.3412   12.9579   27.8224 F   0  0  0  0  0  0  0  0  0  0  0  0
    8.8374    9.8618   24.2702 C   0  0  0  0  0  0  0  0  0  0  0  0
    9.9288    9.7806   23.4168 C   0  0  0  0  0  0  0  0  0  0  0  0
  1  2  1  0
  2  3  1  0
  3  4  2  0
  3  5  1  0
  5  6  2  0
  6  7  1  0
  7  8  2  0
  8  9  1  0
  9 10  1  0
 10 11  1  0
 11 12  1  0
 11 13  1  0
 11 14  1  0
  8 15  1  0
 15 16  2  0
 16  5  1  0
M  END
>  <Crystalforms alias>  (269) 
nan

>  <original ID>  (269) 
DFNCXENRXWVYNA-UHFFFAOYSA-N

>  <alias>  (269) 
None

>  <distance_score>  (269) 
0.410757

>  <CanonSites upload name>  (269) 
nan

>  <CanonSites alias>  (269) 
nan

>  <ConformerSites alias>  (269) 
nan

>  <observation_longname>  (269) 
nan

>  <CrystalformSites alias>  (269) 
nan

>  <tags>  (269) 
[]

>  <ref_mols>  (269) 
A1775a

>  <ref_pdb>  (269) 
A1775a

>  <Quatassemblies upload name>  (269) 
nan

>  <inchikey>  (269) 
DFNCXENRXWVYNA-UHFFFAOYSA-N

>  <Experiment code>  (269) 
nan

>  <Quatassemblies alias>  (269) 
nan

>  <Crystalforms upload name>  (269) 
nan

>  <Centroid res>  (269) 
nan

>  <ConformerSites upload name>  (269) 
nan

>  <energy_score>  (269) 
-28.274445

>  <original SMILES>  (269) 
NCC(=O)c1ccc(OCC(F)(F)F)cc1

>  <exports>  (269) 
nan

>  <CrystalformSites upload name>  (269) 
nan

>  <name>  (269) 
DFNCXENRXWVYNA-UHFFFAOYSA-N

>  <HIPPO ID>  (269) 
147205

$$$$
QSBAFYXUIVJTKP-UHFFFAOYSA-N
     RDKit          3D

 16 16  0  0  0  0  0  0  0  0999 V2000
   13.6388   11.6067   20.5994 C   0  0  0  0  0  0  0  0  0  0  0  0
   12.5678   11.9772   21.6325 C   0  0  0  0  0  0  0  0  0  0  0  0
   11.7459   10.7630   22.0648 C   0  0  0  0  0  0  0  0  0  0  0  0
   11.8975    9.6450   21.5732 O   0  0  0  0  0  0  0  0  0  0  0  0
   10.6840   10.9243   23.0890 C   0  0  0  0  0  0  0  0  0  0  0  0
   10.3688   12.1567   23.6621 C   0  0  0  0  0  0  0  0  0  0  0  0
    9.2879   12.2642   24.5451 C   0  0  0  0  0  0  0  0  0  0  0  0
    8.5069   11.1477   24.8459 C   0  0  0  0  0  0  0  0  0  0  0  0
    7.3898   11.1235   25.6382 O   0  0  0  0  0  0  0  0  0  0  0  0
    6.8953   12.3952   26.0570 C   0  0  0  0  0  0  0  0  0  0  0  0
    5.6368   12.3019   26.9034 C   0  0  0  0  0  0  0  0  0  0  0  0
    5.7795   11.4319   27.9230 F   0  0  0  0  0  0  0  0  0  0  0  0
    4.5585   11.9607   26.1795 F   0  0  0  0  0  0  0  0  0  0  0  0
    5.3768   13.5098   27.4604 F   0  0  0  0  0  0  0  0  0  0  0  0
    8.8551    9.9161   24.3000 C   0  0  0  0  0  0  0  0  0  0  0  0
    9.9373    9.7961   23.4353 C   0  0  0  0  0  0  0  0  0  0  0  0
  1  2  1  0
  2  3  1  0
  3  4  2  0
  3  5  1  0
  5  6  2  0
  6  7  1  0
  7  8  2  0
  8  9  1  0
  9 10  1  0
 10 11  1  0
 11 12  1  0
 11 13  1  0
 11 14  1  0
  8 15  1  0
 15 16  2  0
 16  5  1  0
M  END
>  <Crystalforms alias>  (270) 
nan

>  <original ID>  (270) 
QSBAFYXUIVJTKP-UHFFFAOYSA-N

>  <alias>  (270) 
None

>  <distance_score>  (270) 
0.382318

>  <CanonSites upload name>  (270) 
nan

>  <CanonSites alias>  (270) 
nan

>  <ConformerSites alias>  (270) 
nan

>  <observation_longname>  (270) 
nan

>  <CrystalformSites alias>  (270) 
nan

>  <tags>  (270) 
[]

>  <ref_mols>  (270) 
A1775a

>  <ref_pdb>  (270) 
A1775a

>  <Quatassemblies upload name>  (270) 
nan

>  <inchikey>  (270) 
QSBAFYXUIVJTKP-UHFFFAOYSA-N

>  <Experiment code>  (270) 
nan

>  <Quatassemblies alias>  (270) 
nan

>  <Crystalforms upload name>  (270) 
nan

>  <Centroid res>  (270) 
nan

>  <ConformerSites upload name>  (270) 
nan

>  <energy_score>  (270) 
-5.873715

>  <original SMILES>  (270) 
CCC(=O)c1ccc(OCC(F)(F)F)cc1

>  <exports>  (270) 
nan

>  <CrystalformSites upload name>  (270) 
nan

>  <name>  (270) 
QSBAFYXUIVJTKP-UHFFFAOYSA-N

>  <HIPPO ID>  (270) 
147206

$$$$
FKHRWYLSCCNYJX-UHFFFAOYSA-N
     RDKit          3D

 16 16  0  0  0  0  0  0  0  0999 V2000
   11.8729    9.6613   21.6163 O   0  0  0  0  0  0  0  0  0  0  0  0
   11.7045   10.7756   22.1106 C   0  0  0  0  0  0  0  0  0  0  0  0
   12.4781   12.0189   21.7055 C   0  0  0  0  0  0  0  0  0  0  0  0
   13.7067   11.5952   20.4880 Cl  0  0  0  0  0  0  0  0  0  0  0  0
   10.6413   10.9169   23.1331 C   0  0  0  0  0  0  0  0  0  0  0  0
    9.9000    9.7812   23.4579 C   0  0  0  0  0  0  0  0  0  0  0  0
    8.8105    9.8904   24.3112 C   0  0  0  0  0  0  0  0  0  0  0  0
    8.4524   11.1145   24.8682 C   0  0  0  0  0  0  0  0  0  0  0  0
    7.3243   11.0751   25.6381 O   0  0  0  0  0  0  0  0  0  0  0  0
    6.9170   12.3042   26.2356 C   0  0  0  0  0  0  0  0  0  0  0  0
    5.7130   12.1396   27.1482 C   0  0  0  0  0  0  0  0  0  0  0  0
    5.7421   13.1075   28.0981 F   0  0  0  0  0  0  0  0  0  0  0  0
    4.5536   12.2731   26.4825 F   0  0  0  0  0  0  0  0  0  0  0  0
    5.7188   10.9578   27.7950 F   0  0  0  0  0  0  0  0  0  0  0  0
    9.2288   12.2373   24.5912 C   0  0  0  0  0  0  0  0  0  0  0  0
   10.3175   12.1430   23.7197 C   0  0  0  0  0  0  0  0  0  0  0  0
  1  2  2  0
  2  3  1  0
  3  4  1  0
  2  5  1  0
  5  6  2  0
  6  7  1  0
  7  8  2  0
  8  9  1  0
  9 10  1  0
 10 11  1  0
 11 12  1  0
 11 13  1  0
 11 14  1  0
  8 15  1  0
 15 16  2  0
 16  5  1  0
M  END
>  <Crystalforms alias>  (271) 
nan

>  <original ID>  (271) 
FKHRWYLSCCNYJX-UHFFFAOYSA-N

>  <alias>  (271) 
None

>  <distance_score>  (271) 
0.420004

>  <CanonSites upload name>  (271) 
nan

>  <CanonSites alias>  (271) 
nan

>  <ConformerSites alias>  (271) 
nan

>  <observation_longname>  (271) 
nan

>  <CrystalformSites alias>  (271) 
nan

>  <tags>  (271) 
[]

>  <ref_mols>  (271) 
A1775a

>  <ref_pdb>  (271) 
A1775a

>  <Quatassemblies upload name>  (271) 
nan

>  <inchikey>  (271) 
FKHRWYLSCCNYJX-UHFFFAOYSA-N

>  <Experiment code>  (271) 
nan

>  <Quatassemblies alias>  (271) 
nan

>  <Crystalforms upload name>  (271) 
nan

>  <Centroid res>  (271) 
nan

>  <ConformerSites upload name>  (271) 
nan

>  <energy_score>  (271) 
-12.754316

>  <original SMILES>  (271) 
O=C(CCl)c1ccc(OCC(F)(F)F)cc1

>  <exports>  (271) 
nan

>  <CrystalformSites upload name>  (271) 
nan

>  <name>  (271) 
FKHRWYLSCCNYJX-UHFFFAOYSA-N

>  <HIPPO ID>  (271) 
147211

$$$$
FRFZUQHMOYXOKZ-JTQLQIEISA-N
     RDKit          3D

 16 16  0  0  0  0  0  0  0  0999 V2000
   13.5457   11.6915   20.7986 C   0  0  0  0  0  0  0  0  0  0  0  0
   12.4783   12.1037   21.8313 C   0  0  0  0  0  0  0  0  0  0  0  0
   11.7151   13.3711   21.4525 C   0  0  0  0  0  0  0  0  0  0  0  0
   11.6385   10.8679   22.1911 C   0  0  0  0  0  0  0  0  0  0  0  0
   11.7878    9.7751   21.6381 O   0  0  0  0  0  0  0  0  0  0  0  0
   10.6142   10.9410   23.2569 C   0  0  0  0  0  0  0  0  0  0  0  0
   10.3674   12.0891   24.0136 C   0  0  0  0  0  0  0  0  0  0  0  0
    9.2605   12.1451   24.8604 C   0  0  0  0  0  0  0  0  0  0  0  0
    8.4265   11.0403   24.9783 C   0  0  0  0  0  0  0  0  0  0  0  0
    7.2750   10.9695   25.6995 O   0  0  0  0  0  0  0  0  0  0  0  0
    6.7782   12.1881   26.2488 C   0  0  0  0  0  0  0  0  0  0  0  0
    5.4351   11.8746   26.9013 C   0  0  2  0  0  0  0  0  0  0  0  0
    4.8576   13.0866   27.6088 C   0  0  0  0  0  0  0  0  0  0  0  0
    5.6092   10.8303   27.8596 O   0  0  0  0  0  0  0  0  0  0  0  0
    8.7509    9.8622   24.3146 C   0  0  0  0  0  0  0  0  0  0  0  0
    9.8306    9.8056   23.4526 C   0  0  0  0  0  0  0  0  0  0  0  0
  1  2  1  0
  2  3  1  0
  2  4  1  0
  4  5  2  0
  4  6  1  0
  6  7  2  0
  7  8  1  0
  8  9  2  0
  9 10  1  0
 10 11  1  0
 11 12  1  0
 12 13  1  1
 12 14  1  0
  9 15  1  0
 15 16  2  0
 16  6  1  0
M  END
>  <Crystalforms alias>  (272) 
nan

>  <original ID>  (272) 
FRFZUQHMOYXOKZ-JTQLQIEISA-N

>  <alias>  (272) 
None

>  <distance_score>  (272) 
0.929388

>  <CanonSites upload name>  (272) 
nan

>  <CanonSites alias>  (272) 
nan

>  <ConformerSites alias>  (272) 
nan

>  <observation_longname>  (272) 
nan

>  <CrystalformSites alias>  (272) 
nan

>  <tags>  (272) 
[]

>  <ref_mols>  (272) 
A1775a

>  <ref_pdb>  (272) 
A1775a

>  <Quatassemblies upload name>  (272) 
nan

>  <inchikey>  (272) 
FRFZUQHMOYXOKZ-JTQLQIEISA-N

>  <Experiment code>  (272) 
nan

>  <Quatassemblies alias>  (272) 
nan

>  <Crystalforms upload name>  (272) 
nan

>  <Centroid res>  (272) 
nan

>  <ConformerSites upload name>  (272) 
nan

>  <energy_score>  (272) 
-13.897243

>  <original SMILES>  (272) 
CC(C)C(=O)c1ccc(OC[C@H](C)O)cc1

>  <exports>  (272) 
nan

>  <CrystalformSites upload name>  (272) 
nan

>  <name>  (272) 
FRFZUQHMOYXOKZ-JTQLQIEISA-N

>  <HIPPO ID>  (272) 
150393

$$$$
FRFZUQHMOYXOKZ-SNVBAGLBSA-N
     RDKit          3D

 16 16  0  0  0  0  0  0  0  0999 V2000
   11.7198   13.3778   21.4400 C   0  0  0  0  0  0  0  0  0  0  0  0
   12.4773   12.1073   21.8235 C   0  0  0  0  0  0  0  0  0  0  0  0
   13.5408   11.6839   20.7933 C   0  0  0  0  0  0  0  0  0  0  0  0
   11.6233   10.8828   22.1926 C   0  0  0  0  0  0  0  0  0  0  0  0
   11.7570    9.7829   21.6504 O   0  0  0  0  0  0  0  0  0  0  0  0
   10.6044   10.9823   23.2618 C   0  0  0  0  0  0  0  0  0  0  0  0
   10.4156   12.1348   24.0298 C   0  0  0  0  0  0  0  0  0  0  0  0
    9.3580   12.2072   24.9301 C   0  0  0  0  0  0  0  0  0  0  0  0
    8.5146   11.1145   25.0843 C   0  0  0  0  0  0  0  0  0  0  0  0
    7.4949   11.0904   25.9869 O   0  0  0  0  0  0  0  0  0  0  0  0
    6.5599   12.1555   25.7971 C   0  0  0  0  0  0  0  0  0  0  0  0
    5.4541   11.9725   26.8309 C   0  0  1  0  0  0  0  0  0  0  0  0
    4.3918   13.0483   26.6993 C   0  0  0  0  0  0  0  0  0  0  0  0
    4.8462   10.6947   26.6571 O   0  0  0  0  0  0  0  0  0  0  0  0
    8.7542    9.9381   24.3877 C   0  0  0  0  0  0  0  0  0  0  0  0
    9.7893    9.8682   23.4711 C   0  0  0  0  0  0  0  0  0  0  0  0
  1  2  1  0
  2  3  1  0
  2  4  1  0
  4  5  2  0
  4  6  1  0
  6  7  2  0
  7  8  1  0
  8  9  2  0
  9 10  1  0
 10 11  1  0
 11 12  1  0
 12 13  1  6
 12 14  1  0
  9 15  1  0
 15 16  2  0
 16  6  1  0
M  END
>  <Crystalforms alias>  (273) 
nan

>  <original ID>  (273) 
FRFZUQHMOYXOKZ-SNVBAGLBSA-N

>  <alias>  (273) 
None

>  <distance_score>  (273) 
0.948597

>  <CanonSites upload name>  (273) 
nan

>  <CanonSites alias>  (273) 
nan

>  <ConformerSites alias>  (273) 
nan

>  <observation_longname>  (273) 
nan

>  <CrystalformSites alias>  (273) 
nan

>  <tags>  (273) 
[]

>  <ref_mols>  (273) 
A1775a

>  <ref_pdb>  (273) 
A1775a

>  <Quatassemblies upload name>  (273) 
nan

>  <inchikey>  (273) 
FRFZUQHMOYXOKZ-SNVBAGLBSA-N

>  <Experiment code>  (273) 
nan

>  <Quatassemblies alias>  (273) 
nan

>  <Crystalforms upload name>  (273) 
nan

>  <Centroid res>  (273) 
nan

>  <ConformerSites upload name>  (273) 
nan

>  <energy_score>  (273) 
-18.742686

>  <original SMILES>  (273) 
CC(C)C(=O)c1ccc(OC[C@@H](C)O)cc1

>  <exports>  (273) 
nan

>  <CrystalformSites upload name>  (273) 
nan

>  <name>  (273) 
FRFZUQHMOYXOKZ-SNVBAGLBSA-N

>  <HIPPO ID>  (273) 
150394

$$$$
YJFNFQHMQJCPRG-UHFFFAOYSA-N
     RDKit          3D

 12 12  0  0  0  0  0  0  0  0999 V2000
    5.5258   11.9214   26.9612 C   0  0  0  0  0  0  0  0  0  0  0  0
    6.7837   12.2254   26.1748 C   0  0  0  0  0  0  0  0  0  0  0  0
    7.3376   10.9947   25.7241 O   0  0  0  0  0  0  0  0  0  0  0  0
    8.4462   11.0744   24.9319 C   0  0  0  0  0  0  0  0  0  0  0  0
    8.8124    9.8764   24.3205 C   0  0  0  0  0  0  0  0  0  0  0  0
    9.8966    9.8116   23.4559 C   0  0  0  0  0  0  0  0  0  0  0  0
   10.6208   10.9683   23.1834 C   0  0  0  0  0  0  0  0  0  0  0  0
   11.6891   10.8973   22.1633 C   0  0  0  0  0  0  0  0  0  0  0  0
   12.4125   12.1721   21.8050 C   0  0  0  0  0  0  0  0  0  0  0  0
   11.9334    9.8258   21.6109 O   0  0  0  0  0  0  0  0  0  0  0  0
   10.2888   12.1663   23.8247 C   0  0  0  0  0  0  0  0  0  0  0  0
    9.2076   12.2153   24.7042 C   0  0  0  0  0  0  0  0  0  0  0  0
  1  2  1  0
  2  3  1  0
  3  4  1  0
  4  5  2  0
  5  6  1  0
  6  7  2  0
  7  8  1  0
  8  9  1  0
  8 10  2  0
  7 11  1  0
 11 12  2  0
 12  4  1  0
M  END
>  <Crystalforms alias>  (274) 
nan

>  <original ID>  (274) 
YJFNFQHMQJCPRG-UHFFFAOYSA-N

>  <alias>  (274) 
None

>  <distance_score>  (274) 
0.508797

>  <CanonSites upload name>  (274) 
nan

>  <CanonSites alias>  (274) 
nan

>  <ConformerSites alias>  (274) 
nan

>  <observation_longname>  (274) 
nan

>  <CrystalformSites alias>  (274) 
nan

>  <tags>  (274) 
[]

>  <ref_mols>  (274) 
A1775a

>  <ref_pdb>  (274) 
A1775a

>  <Quatassemblies upload name>  (274) 
nan

>  <inchikey>  (274) 
YJFNFQHMQJCPRG-UHFFFAOYSA-N

>  <Experiment code>  (274) 
nan

>  <Quatassemblies alias>  (274) 
nan

>  <Crystalforms upload name>  (274) 
nan

>  <Centroid res>  (274) 
nan

>  <ConformerSites upload name>  (274) 
nan

>  <energy_score>  (274) 
-10.553814

>  <original SMILES>  (274) 
CCOc1ccc(C(C)=O)cc1

>  <exports>  (274) 
nan

>  <CrystalformSites upload name>  (274) 
nan

>  <name>  (274) 
YJFNFQHMQJCPRG-UHFFFAOYSA-N

>  <HIPPO ID>  (274) 
150492

$$$$
RTYYKCQJSTZADZ-UHFFFAOYSA-N
     RDKit          3D

 13 13  0  0  0  0  0  0  0  0999 V2000
    5.7140   12.0792   28.1569 C   0  0  0  0  0  0  0  0  0  0  0  0
    5.3484   11.9651   26.6840 C   0  0  0  0  0  0  0  0  0  0  0  0
    6.5485   12.1920   25.7730 C   0  0  0  0  0  0  0  0  0  0  0  0
    7.4203   11.0660   25.8522 O   0  0  0  0  0  0  0  0  0  0  0  0
    8.4735   11.1099   24.9829 C   0  0  0  0  0  0  0  0  0  0  0  0
    9.2459   12.2423   24.7493 C   0  0  0  0  0  0  0  0  0  0  0  0
   10.3054   12.1841   23.8460 C   0  0  0  0  0  0  0  0  0  0  0  0
   10.6089   10.9835   23.1945 C   0  0  0  0  0  0  0  0  0  0  0  0
   11.6740   10.8988   22.1710 C   0  0  0  0  0  0  0  0  0  0  0  0
   12.4058   12.1671   21.8040 C   0  0  0  0  0  0  0  0  0  0  0  0
   11.9103    9.8220   21.6255 O   0  0  0  0  0  0  0  0  0  0  0  0
    9.8698    9.8359   23.4728 C   0  0  0  0  0  0  0  0  0  0  0  0
    8.8047    9.9089   24.3614 C   0  0  0  0  0  0  0  0  0  0  0  0
  1  2  1  0
  2  3  1  0
  3  4  1  0
  4  5  1  0
  5  6  2  0
  6  7  1  0
  7  8  2  0
  8  9  1  0
  9 10  1  0
  9 11  2  0
  8 12  1  0
 12 13  2  0
 13  5  1  0
M  END
>  <Crystalforms alias>  (275) 
nan

>  <original ID>  (275) 
RTYYKCQJSTZADZ-UHFFFAOYSA-N

>  <alias>  (275) 
None

>  <distance_score>  (275) 
0.531472

>  <CanonSites upload name>  (275) 
nan

>  <CanonSites alias>  (275) 
nan

>  <ConformerSites alias>  (275) 
nan

>  <observation_longname>  (275) 
nan

>  <CrystalformSites alias>  (275) 
nan

>  <tags>  (275) 
[]

>  <ref_mols>  (275) 
A1775a

>  <ref_pdb>  (275) 
A1775a

>  <Quatassemblies upload name>  (275) 
nan

>  <inchikey>  (275) 
RTYYKCQJSTZADZ-UHFFFAOYSA-N

>  <Experiment code>  (275) 
nan

>  <Quatassemblies alias>  (275) 
nan

>  <Crystalforms upload name>  (275) 
nan

>  <Centroid res>  (275) 
nan

>  <ConformerSites upload name>  (275) 
nan

>  <energy_score>  (275) 
-20.358485

>  <original SMILES>  (275) 
CCCOc1ccc(C(C)=O)cc1

>  <exports>  (275) 
nan

>  <CrystalformSites upload name>  (275) 
nan

>  <name>  (275) 
RTYYKCQJSTZADZ-UHFFFAOYSA-N

>  <HIPPO ID>  (275) 
150723

$$$$
BLAHXQHYMANQBP-UHFFFAOYSA-N
     RDKit          3D

 13 13  0  0  0  0  0  0  0  0999 V2000
    4.5281   12.7870   26.9814 C   0  0  0  0  0  0  0  0  0  0  0  0
    5.6110   11.9987   27.0031 C   0  0  0  0  0  0  0  0  0  0  0  0
    6.8408   12.2517   26.1941 C   0  0  0  0  0  0  0  0  0  0  0  0
    7.3276   11.0127   25.6947 O   0  0  0  0  0  0  0  0  0  0  0  0
    8.4495   11.0784   24.9158 C   0  0  0  0  0  0  0  0  0  0  0  0
    9.2207   12.2143   24.6870 C   0  0  0  0  0  0  0  0  0  0  0  0
   10.3045   12.1578   23.8122 C   0  0  0  0  0  0  0  0  0  0  0  0
   10.6311   10.9574   23.1749 C   0  0  0  0  0  0  0  0  0  0  0  0
   11.6978   10.8840   22.1535 C   0  0  0  0  0  0  0  0  0  0  0  0
   12.4227   12.1578   21.7913 C   0  0  0  0  0  0  0  0  0  0  0  0
   11.9392    9.8110   21.6031 O   0  0  0  0  0  0  0  0  0  0  0  0
    9.9009    9.8047   23.4503 C   0  0  0  0  0  0  0  0  0  0  0  0
    8.8132    9.8765   24.3111 C   0  0  0  0  0  0  0  0  0  0  0  0
  1  2  2  0
  2  3  1  0
  3  4  1  0
  4  5  1  0
  5  6  2  0
  6  7  1  0
  7  8  2  0
  8  9  1  0
  9 10  1  0
  9 11  2  0
  8 12  1  0
 12 13  2  0
 13  5  1  0
M  END
>  <Crystalforms alias>  (276) 
nan

>  <original ID>  (276) 
BLAHXQHYMANQBP-UHFFFAOYSA-N

>  <alias>  (276) 
None

>  <distance_score>  (276) 
0.495623

>  <CanonSites upload name>  (276) 
nan

>  <CanonSites alias>  (276) 
nan

>  <ConformerSites alias>  (276) 
nan

>  <observation_longname>  (276) 
nan

>  <CrystalformSites alias>  (276) 
nan

>  <tags>  (276) 
[]

>  <ref_mols>  (276) 
A1775a

>  <ref_pdb>  (276) 
A1775a

>  <Quatassemblies upload name>  (276) 
nan

>  <inchikey>  (276) 
BLAHXQHYMANQBP-UHFFFAOYSA-N

>  <Experiment code>  (276) 
nan

>  <Quatassemblies alias>  (276) 
nan

>  <Crystalforms upload name>  (276) 
nan

>  <Centroid res>  (276) 
nan

>  <ConformerSites upload name>  (276) 
nan

>  <energy_score>  (276) 
-16.513951

>  <original SMILES>  (276) 
C=CCOc1ccc(C(C)=O)cc1

>  <exports>  (276) 
nan

>  <CrystalformSites upload name>  (276) 
nan

>  <name>  (276) 
BLAHXQHYMANQBP-UHFFFAOYSA-N

>  <HIPPO ID>  (276) 
150819

$$$$
YTKFPAFKJWBAFG-UHFFFAOYSA-N
     RDKit          3D

 13 13  0  0  0  0  0  0  0  0999 V2000
   12.3394   12.2012   21.8767 C   0  0  0  0  0  0  0  0  0  0  0  0
   11.6145   10.9299   22.2453 C   0  0  0  0  0  0  0  0  0  0  0  0
   11.8541    9.8541   21.6983 O   0  0  0  0  0  0  0  0  0  0  0  0
   10.5501   11.0132   23.2728 C   0  0  0  0  0  0  0  0  0  0  0  0
    9.7985    9.8724   23.5313 C   0  0  0  0  0  0  0  0  0  0  0  0
    8.7234    9.9504   24.4089 C   0  0  0  0  0  0  0  0  0  0  0  0
    8.3872   11.1430   25.0517 C   0  0  0  0  0  0  0  0  0  0  0  0
    7.2914   11.0597   25.8593 O   0  0  0  0  0  0  0  0  0  0  0  0
    6.6691   12.2521   26.3384 C   0  0  0  0  0  0  0  0  0  0  0  0
    5.1656   12.0415   26.3097 C   0  0  0  0  0  0  0  0  0  0  0  0
    7.0897   12.5196   27.7749 C   0  0  0  0  0  0  0  0  0  0  0  0
    9.1807   12.2632   24.8433 C   0  0  0  0  0  0  0  0  0  0  0  0
   10.2519   12.2044   23.9458 C   0  0  0  0  0  0  0  0  0  0  0  0
  1  2  1  0
  2  3  2  0
  2  4  1  0
  4  5  2  0
  5  6  1  0
  6  7  2  0
  7  8  1  0
  8  9  1  0
  9 10  1  0
  9 11  1  0
  7 12  1  0
 12 13  2  0
 13  4  1  0
M  END
>  <Crystalforms alias>  (277) 
nan

>  <original ID>  (277) 
YTKFPAFKJWBAFG-UHFFFAOYSA-N

>  <alias>  (277) 
None

>  <distance_score>  (277) 
0.60272

>  <CanonSites upload name>  (277) 
nan

>  <CanonSites alias>  (277) 
nan

>  <ConformerSites alias>  (277) 
nan

>  <observation_longname>  (277) 
nan

>  <CrystalformSites alias>  (277) 
nan

>  <tags>  (277) 
[]

>  <ref_mols>  (277) 
A1775a

>  <ref_pdb>  (277) 
A1775a

>  <Quatassemblies upload name>  (277) 
nan

>  <inchikey>  (277) 
YTKFPAFKJWBAFG-UHFFFAOYSA-N

>  <Experiment code>  (277) 
nan

>  <Quatassemblies alias>  (277) 
nan

>  <Crystalforms upload name>  (277) 
nan

>  <Centroid res>  (277) 
nan

>  <ConformerSites upload name>  (277) 
nan

>  <energy_score>  (277) 
-13.830372

>  <original SMILES>  (277) 
CC(=O)c1ccc(OC(C)C)cc1

>  <exports>  (277) 
nan

>  <CrystalformSites upload name>  (277) 
nan

>  <name>  (277) 
YTKFPAFKJWBAFG-UHFFFAOYSA-N

>  <HIPPO ID>  (277) 
150833

$$$$
XZJXCESWBMDSBO-UHFFFAOYSA-N
     RDKit          3D

 13 13  0  0  0  0  0  0  0  0999 V2000
    5.6348   11.9841   26.8887 C   0  0  0  0  0  0  0  0  0  0  0  0
    6.8779   12.2791   26.0735 C   0  0  0  0  0  0  0  0  0  0  0  0
    7.4485   11.0425   25.6678 O   0  0  0  0  0  0  0  0  0  0  0  0
    8.5413   11.1018   24.8525 C   0  0  0  0  0  0  0  0  0  0  0  0
    9.3029   12.2317   24.5622 C   0  0  0  0  0  0  0  0  0  0  0  0
   10.3776   12.1454   23.6686 C   0  0  0  0  0  0  0  0  0  0  0  0
   10.7005   10.9210   23.0784 C   0  0  0  0  0  0  0  0  0  0  0  0
   11.7583   10.7721   22.0497 C   0  0  0  0  0  0  0  0  0  0  0  0
   11.9065    9.6622   21.5378 O   0  0  0  0  0  0  0  0  0  0  0  0
   12.5784   11.9880   21.6267 C   0  0  0  0  0  0  0  0  0  0  0  0
   13.6510   11.6175   20.5939 C   0  0  0  0  0  0  0  0  0  0  0  0
    9.9661    9.7816   23.4103 C   0  0  0  0  0  0  0  0  0  0  0  0
    8.8917    9.8815   24.2827 C   0  0  0  0  0  0  0  0  0  0  0  0
  1  2  1  0
  2  3  1  0
  3  4  1  0
  4  5  2  0
  5  6  1  0
  6  7  2  0
  7  8  1  0
  8  9  2  0
  8 10  1  0
 10 11  1  0
  7 12  1  0
 12 13  2  0
 13  4  1  0
M  END
>  <Crystalforms alias>  (278) 
nan

>  <original ID>  (278) 
XZJXCESWBMDSBO-UHFFFAOYSA-N

>  <alias>  (278) 
None

>  <distance_score>  (278) 
0.364582

>  <CanonSites upload name>  (278) 
nan

>  <CanonSites alias>  (278) 
nan

>  <ConformerSites alias>  (278) 
nan

>  <observation_longname>  (278) 
nan

>  <CrystalformSites alias>  (278) 
nan

>  <tags>  (278) 
[]

>  <ref_mols>  (278) 
A1775a

>  <ref_pdb>  (278) 
A1775a

>  <Quatassemblies upload name>  (278) 
nan

>  <inchikey>  (278) 
XZJXCESWBMDSBO-UHFFFAOYSA-N

>  <Experiment code>  (278) 
nan

>  <Quatassemblies alias>  (278) 
nan

>  <Crystalforms upload name>  (278) 
nan

>  <Centroid res>  (278) 
nan

>  <ConformerSites upload name>  (278) 
nan

>  <energy_score>  (278) 
-14.951008

>  <original SMILES>  (278) 
CCOc1ccc(C(=O)CC)cc1

>  <exports>  (278) 
nan

>  <CrystalformSites upload name>  (278) 
nan

>  <name>  (278) 
XZJXCESWBMDSBO-UHFFFAOYSA-N

>  <HIPPO ID>  (278) 
150911

$$$$
LRFZWCCZZPOAEN-UHFFFAOYSA-N
     RDKit          3D

 13 13  0  0  0  0  0  0  0  0999 V2000
    5.5928   11.9487   26.9174 C   0  0  0  0  0  0  0  0  0  0  0  0
    6.8358   12.2479   26.1046 C   0  0  0  0  0  0  0  0  0  0  0  0
    7.3999   11.0132   25.6805 O   0  0  0  0  0  0  0  0  0  0  0  0
    8.4969   11.0807   24.8713 C   0  0  0  0  0  0  0  0  0  0  0  0
    8.8609    9.8674   24.2919 C   0  0  0  0  0  0  0  0  0  0  0  0
    9.9400    9.7810   23.4227 C   0  0  0  0  0  0  0  0  0  0  0  0
   10.6623   10.9298   23.1066 C   0  0  0  0  0  0  0  0  0  0  0  0
   11.7348   10.8110   22.0924 C   0  0  0  0  0  0  0  0  0  0  0  0
   11.9508    9.7138   21.5714 O   0  0  0  0  0  0  0  0  0  0  0  0
   12.5155   12.0670   21.6964 C   0  0  0  0  0  0  0  0  0  0  0  0
   13.5906   11.7048   20.7476 N   0  0  0  0  0  0  0  0  0  0  0  0
   10.3248   12.1476   23.7053 C   0  0  0  0  0  0  0  0  0  0  0  0
    9.2490   12.2183   24.5947 C   0  0  0  0  0  0  0  0  0  0  0  0
  1  2  1  0
  2  3  1  0
  3  4  1  0
  4  5  2  0
  5  6  1  0
  6  7  2  0
  7  8  1  0
  8  9  2  0
  8 10  1  0
 10 11  1  0
  7 12  1  0
 12 13  2  0
 13  4  1  0
M  END
>  <Crystalforms alias>  (279) 
nan

>  <original ID>  (279) 
LRFZWCCZZPOAEN-UHFFFAOYSA-N

>  <alias>  (279) 
None

>  <distance_score>  (279) 
0.39482

>  <CanonSites upload name>  (279) 
nan

>  <CanonSites alias>  (279) 
nan

>  <ConformerSites alias>  (279) 
nan

>  <observation_longname>  (279) 
nan

>  <CrystalformSites alias>  (279) 
nan

>  <tags>  (279) 
[]

>  <ref_mols>  (279) 
A1775a

>  <ref_pdb>  (279) 
A1775a

>  <Quatassemblies upload name>  (279) 
nan

>  <inchikey>  (279) 
LRFZWCCZZPOAEN-UHFFFAOYSA-N

>  <Experiment code>  (279) 
nan

>  <Quatassemblies alias>  (279) 
nan

>  <Crystalforms upload name>  (279) 
nan

>  <Centroid res>  (279) 
nan

>  <ConformerSites upload name>  (279) 
nan

>  <energy_score>  (279) 
-23.760042

>  <original SMILES>  (279) 
CCOc1ccc(C(=O)CN)cc1

>  <exports>  (279) 
nan

>  <CrystalformSites upload name>  (279) 
nan

>  <name>  (279) 
LRFZWCCZZPOAEN-UHFFFAOYSA-N

>  <HIPPO ID>  (279) 
150918

$$$$
ZYLJLWLQPBRDLN-UHFFFAOYSA-N
     RDKit          3D

 13 13  0  0  0  0  0  0  0  0999 V2000
    5.5706   11.9799   26.9308 C   0  0  0  0  0  0  0  0  0  0  0  0
    6.8236   12.2708   26.1306 C   0  0  0  0  0  0  0  0  0  0  0  0
    7.3798   11.0329   25.7083 O   0  0  0  0  0  0  0  0  0  0  0  0
    8.4786   11.0923   24.9018 C   0  0  0  0  0  0  0  0  0  0  0  0
    9.2475   12.2204   24.6315 C   0  0  0  0  0  0  0  0  0  0  0  0
   10.3238   12.1387   23.7425 C   0  0  0  0  0  0  0  0  0  0  0  0
   10.6417   10.9190   23.1366 C   0  0  0  0  0  0  0  0  0  0  0  0
   11.7024   10.7822   22.1113 C   0  0  0  0  0  0  0  0  0  0  0  0
   11.8729    9.6695   21.6130 O   0  0  0  0  0  0  0  0  0  0  0  0
   12.4746   12.0259   21.7088 C   0  0  0  0  0  0  0  0  0  0  0  0
   13.7032   11.6010   20.4895 Cl  0  0  0  0  0  0  0  0  0  0  0  0
    9.9029    9.7793   23.4514 C   0  0  0  0  0  0  0  0  0  0  0  0
    8.8265    9.8768   24.3202 C   0  0  0  0  0  0  0  0  0  0  0  0
  1  2  1  0
  2  3  1  0
  3  4  1  0
  4  5  2  0
  5  6  1  0
  6  7  2  0
  7  8  1  0
  8  9  2  0
  8 10  1  0
 10 11  1  0
  7 12  1  0
 12 13  2  0
 13  4  1  0
M  END
>  <Crystalforms alias>  (280) 
nan

>  <original ID>  (280) 
ZYLJLWLQPBRDLN-UHFFFAOYSA-N

>  <alias>  (280) 
None

>  <distance_score>  (280) 
0.399207

>  <CanonSites upload name>  (280) 
nan

>  <CanonSites alias>  (280) 
nan

>  <ConformerSites alias>  (280) 
nan

>  <observation_longname>  (280) 
nan

>  <CrystalformSites alias>  (280) 
nan

>  <tags>  (280) 
[]

>  <ref_mols>  (280) 
A1775a

>  <ref_pdb>  (280) 
A1775a

>  <Quatassemblies upload name>  (280) 
nan

>  <inchikey>  (280) 
ZYLJLWLQPBRDLN-UHFFFAOYSA-N

>  <Experiment code>  (280) 
nan

>  <Quatassemblies alias>  (280) 
nan

>  <Crystalforms upload name>  (280) 
nan

>  <Centroid res>  (280) 
nan

>  <ConformerSites upload name>  (280) 
nan

>  <energy_score>  (280) 
-17.106722

>  <original SMILES>  (280) 
CCOc1ccc(C(=O)CCl)cc1

>  <exports>  (280) 
nan

>  <CrystalformSites upload name>  (280) 
nan

>  <name>  (280) 
ZYLJLWLQPBRDLN-UHFFFAOYSA-N

>  <HIPPO ID>  (280) 
150946

$$$$
FLMVKFTYGACBNH-UHFFFAOYSA-N
     RDKit          3D

 13 14  0  0  0  0  0  0  0  0999 V2000
    5.7021   11.9810   26.8230 C   0  0  0  0  0  0  0  0  0  0  0  0
    6.9205   12.2561   25.9638 C   0  0  0  0  0  0  0  0  0  0  0  0
    7.4940   11.0094   25.5911 O   0  0  0  0  0  0  0  0  0  0  0  0
    8.5817   11.0454   24.7633 C   0  0  0  0  0  0  0  0  0  0  0  0
    8.9346    9.7890   24.2386 C   0  0  0  0  0  0  0  0  0  0  0  0
   10.0050    9.6343   23.3695 C   0  0  0  0  0  0  0  0  0  0  0  0
   10.6895   10.7769   23.0317 C   0  0  0  0  0  0  0  0  0  0  0  0
   10.3766   12.0337   23.5310 C   0  0  0  0  0  0  0  0  0  0  0  0
    9.3210   12.1807   24.4192 C   0  0  0  0  0  0  0  0  0  0  0  0
   11.2539   13.1006   22.9549 C   0  0  0  0  0  0  0  0  0  0  0  0
   12.2050   12.3603   22.0212 C   0  0  0  0  0  0  0  0  0  0  0  0
   11.7681   10.9120   22.0773 C   0  0  0  0  0  0  0  0  0  0  0  0
   12.1921    9.9716   21.4283 O   0  0  0  0  0  0  0  0  0  0  0  0
  1  2  1  0
  2  3  1  0
  3  4  1  0
  4  5  2  0
  5  6  1  0
  6  7  2  0
  7  8  1  0
  8  9  2  0
  8 10  1  0
 10 11  1  0
 11 12  1  0
 12 13  2  0
  9  4  1  0
 12  7  1  0
M  END
>  <Crystalforms alias>  (281) 
nan

>  <original ID>  (281) 
FLMVKFTYGACBNH-UHFFFAOYSA-N

>  <alias>  (281) 
None

>  <distance_score>  (281) 
1.136258

>  <CanonSites upload name>  (281) 
nan

>  <CanonSites alias>  (281) 
nan

>  <ConformerSites alias>  (281) 
nan

>  <observation_longname>  (281) 
nan

>  <CrystalformSites alias>  (281) 
nan

>  <tags>  (281) 
[]

>  <ref_mols>  (281) 
A1775a

>  <ref_pdb>  (281) 
A1775a

>  <Quatassemblies upload name>  (281) 
nan

>  <inchikey>  (281) 
FLMVKFTYGACBNH-UHFFFAOYSA-N

>  <Experiment code>  (281) 
nan

>  <Quatassemblies alias>  (281) 
nan

>  <Crystalforms upload name>  (281) 
nan

>  <Centroid res>  (281) 
nan

>  <ConformerSites upload name>  (281) 
nan

>  <energy_score>  (281) 
-21.245146

>  <original SMILES>  (281) 
CCOc1ccc2c(c1)CCC2=O

>  <exports>  (281) 
nan

>  <CrystalformSites upload name>  (281) 
nan

>  <name>  (281) 
FLMVKFTYGACBNH-UHFFFAOYSA-N

>  <HIPPO ID>  (281) 
151062

$$$$
PXFUIWJLRURUOG-MRVPVSSYSA-N
     RDKit          3D

 14 14  0  0  0  0  0  0  0  0999 V2000
   12.4643   12.1494   21.7417 C   0  0  0  0  0  0  0  0  0  0  0  0
   11.7514   10.8724   22.1110 C   0  0  0  0  0  0  0  0  0  0  0  0
   11.9870    9.8027   21.5521 O   0  0  0  0  0  0  0  0  0  0  0  0
   10.7018   10.9363   23.1479 C   0  0  0  0  0  0  0  0  0  0  0  0
   10.4024   12.1256   23.8192 C   0  0  0  0  0  0  0  0  0  0  0  0
    9.3209   12.1778   24.6935 C   0  0  0  0  0  0  0  0  0  0  0  0
    8.5239   11.0518   24.8746 C   0  0  0  0  0  0  0  0  0  0  0  0
    7.3796   10.9994   25.6136 O   0  0  0  0  0  0  0  0  0  0  0  0
    6.8104   12.2509   25.9730 C   0  0  0  0  0  0  0  0  0  0  0  0
    5.3368   12.0851   26.3205 C   0  0  1  0  0  0  0  0  0  0  0  0
    5.0933   10.9741   27.3273 C   0  0  0  0  0  0  0  0  0  0  0  0
    4.8284   13.3122   26.8302 O   0  0  0  0  0  0  0  0  0  0  0  0
    8.8726    9.8530   24.2572 C   0  0  0  0  0  0  0  0  0  0  0  0
    9.9600    9.7851   23.3996 C   0  0  0  0  0  0  0  0  0  0  0  0
  1  2  1  0
  2  3  2  0
  2  4  1  0
  4  5  2  0
  5  6  1  0
  6  7  2  0
  7  8  1  0
  8  9  1  0
  9 10  1  0
 10 11  1  1
 10 12  1  0
  7 13  1  0
 13 14  2  0
 14  4  1  0
M  END
>  <Crystalforms alias>  (282) 
nan

>  <original ID>  (282) 
PXFUIWJLRURUOG-MRVPVSSYSA-N

>  <alias>  (282) 
None

>  <distance_score>  (282) 
0.457961

>  <CanonSites upload name>  (282) 
nan

>  <CanonSites alias>  (282) 
nan

>  <ConformerSites alias>  (282) 
nan

>  <observation_longname>  (282) 
nan

>  <CrystalformSites alias>  (282) 
nan

>  <tags>  (282) 
[]

>  <ref_mols>  (282) 
A1775a

>  <ref_pdb>  (282) 
A1775a

>  <Quatassemblies upload name>  (282) 
nan

>  <inchikey>  (282) 
PXFUIWJLRURUOG-MRVPVSSYSA-N

>  <Experiment code>  (282) 
nan

>  <Quatassemblies alias>  (282) 
nan

>  <Crystalforms upload name>  (282) 
nan

>  <Centroid res>  (282) 
nan

>  <ConformerSites upload name>  (282) 
nan

>  <energy_score>  (282) 
-20.375518

>  <original SMILES>  (282) 
CC(=O)c1ccc(OC[C@@H](C)O)cc1

>  <exports>  (282) 
nan

>  <CrystalformSites upload name>  (282) 
nan

>  <name>  (282) 
PXFUIWJLRURUOG-MRVPVSSYSA-N

>  <HIPPO ID>  (282) 
152887

$$$$
PXFUIWJLRURUOG-QMMMGPOBSA-N
     RDKit          3D

 14 14  0  0  0  0  0  0  0  0999 V2000
   12.4813   12.1442   21.7358 C   0  0  0  0  0  0  0  0  0  0  0  0
   11.7428   10.8790   22.0952 C   0  0  0  0  0  0  0  0  0  0  0  0
   11.9821    9.8015   21.5533 O   0  0  0  0  0  0  0  0  0  0  0  0
   10.6700   10.9622   23.1069 C   0  0  0  0  0  0  0  0  0  0  0  0
    9.9589    9.8036   23.4061 C   0  0  0  0  0  0  0  0  0  0  0  0
    8.8844    9.8736   24.2804 C   0  0  0  0  0  0  0  0  0  0  0  0
    8.5231   11.0788   24.8803 C   0  0  0  0  0  0  0  0  0  0  0  0
    7.4484   10.9922   25.7119 O   0  0  0  0  0  0  0  0  0  0  0  0
    7.0405   12.1804   26.3752 C   0  0  0  0  0  0  0  0  0  0  0  0
    6.0719   11.8139   27.4974 C   0  0  2  0  0  0  0  0  0  0  0  0
    4.8180   11.1527   26.9679 C   0  0  0  0  0  0  0  0  0  0  0  0
    5.7440   12.9943   28.2245 O   0  0  0  0  0  0  0  0  0  0  0  0
    9.2523   12.2290   24.6009 C   0  0  0  0  0  0  0  0  0  0  0  0
   10.3235   12.1733   23.7128 C   0  0  0  0  0  0  0  0  0  0  0  0
  1  2  1  0
  2  3  2  0
  2  4  1  0
  4  5  2  0
  5  6  1  0
  6  7  2  0
  7  8  1  0
  8  9  1  0
  9 10  1  0
 10 11  1  6
 10 12  1  0
  7 13  1  0
 13 14  2  0
 14  4  1  0
M  END
>  <Crystalforms alias>  (283) 
nan

>  <original ID>  (283) 
PXFUIWJLRURUOG-QMMMGPOBSA-N

>  <alias>  (283) 
None

>  <distance_score>  (283) 
0.539539

>  <CanonSites upload name>  (283) 
nan

>  <CanonSites alias>  (283) 
nan

>  <ConformerSites alias>  (283) 
nan

>  <observation_longname>  (283) 
nan

>  <CrystalformSites alias>  (283) 
nan

>  <tags>  (283) 
[]

>  <ref_mols>  (283) 
A1775a

>  <ref_pdb>  (283) 
A1775a

>  <Quatassemblies upload name>  (283) 
nan

>  <inchikey>  (283) 
PXFUIWJLRURUOG-QMMMGPOBSA-N

>  <Experiment code>  (283) 
nan

>  <Quatassemblies alias>  (283) 
nan

>  <Crystalforms upload name>  (283) 
nan

>  <Centroid res>  (283) 
nan

>  <ConformerSites upload name>  (283) 
nan

>  <energy_score>  (283) 
-15.347264

>  <original SMILES>  (283) 
CC(=O)c1ccc(OC[C@H](C)O)cc1

>  <exports>  (283) 
nan

>  <CrystalformSites upload name>  (283) 
nan

>  <name>  (283) 
PXFUIWJLRURUOG-QMMMGPOBSA-N

>  <HIPPO ID>  (283) 
152888

$$$$
NLUPNAKVXJFJDD-UHFFFAOYSA-N
     RDKit          3D

 14 15  0  0  0  0  0  0  0  0999 V2000
    5.9371   11.8843   27.1617 C   0  0  0  0  0  0  0  0  0  0  0  0
    6.8932   12.2420   26.0272 C   0  0  0  0  0  0  0  0  0  0  0  0
    6.1051   12.9204   24.9154 C   0  0  0  0  0  0  0  0  0  0  0  0
    7.4705   11.0186   25.5746 O   0  0  0  0  0  0  0  0  0  0  0  0
    8.5835   11.0518   24.7821 C   0  0  0  0  0  0  0  0  0  0  0  0
    8.9172    9.7992   24.2344 C   0  0  0  0  0  0  0  0  0  0  0  0
    9.9867    9.6414   23.3644 C   0  0  0  0  0  0  0  0  0  0  0  0
   10.6942   10.7768   23.0518 C   0  0  0  0  0  0  0  0  0  0  0  0
   10.4123   12.0255   23.5875 C   0  0  0  0  0  0  0  0  0  0  0  0
    9.3573   12.1746   24.4766 C   0  0  0  0  0  0  0  0  0  0  0  0
   11.3285   13.0832   23.0570 C   0  0  0  0  0  0  0  0  0  0  0  0
   12.2067   12.3628   22.0401 C   0  0  0  0  0  0  0  0  0  0  0  0
   11.7655   10.9151   22.0892 C   0  0  0  0  0  0  0  0  0  0  0  0
   12.1810    9.9781   21.4298 O   0  0  0  0  0  0  0  0  0  0  0  0
  1  2  1  0
  2  3  1  0
  2  4  1  0
  4  5  1  0
  5  6  2  0
  6  7  1  0
  7  8  2  0
  8  9  1  0
  9 10  2  0
  9 11  1  0
 11 12  1  0
 12 13  1  0
 13 14  2  0
 10  5  1  0
 13  8  1  0
M  END
>  <Crystalforms alias>  (284) 
nan

>  <original ID>  (284) 
NLUPNAKVXJFJDD-UHFFFAOYSA-N

>  <alias>  (284) 
None

>  <distance_score>  (284) 
1.146774

>  <CanonSites upload name>  (284) 
nan

>  <CanonSites alias>  (284) 
nan

>  <ConformerSites alias>  (284) 
nan

>  <observation_longname>  (284) 
nan

>  <CrystalformSites alias>  (284) 
nan

>  <tags>  (284) 
[]

>  <ref_mols>  (284) 
A1775a

>  <ref_pdb>  (284) 
A1775a

>  <Quatassemblies upload name>  (284) 
nan

>  <inchikey>  (284) 
NLUPNAKVXJFJDD-UHFFFAOYSA-N

>  <Experiment code>  (284) 
nan

>  <Quatassemblies alias>  (284) 
nan

>  <Crystalforms upload name>  (284) 
nan

>  <Centroid res>  (284) 
nan

>  <ConformerSites upload name>  (284) 
nan

>  <energy_score>  (284) 
-20.962956

>  <original SMILES>  (284) 
CC(C)Oc1ccc2c(c1)CCC2=O

>  <exports>  (284) 
nan

>  <CrystalformSites upload name>  (284) 
nan

>  <name>  (284) 
NLUPNAKVXJFJDD-UHFFFAOYSA-N

>  <HIPPO ID>  (284) 
153834

$$$$
RAWORWZDBBYBGK-UHFFFAOYSA-N
     RDKit          3D

 14 14  0  0  0  0  0  0  0  0999 V2000
    4.4998   12.4490   26.5752 C   0  0  0  0  0  0  0  0  0  0  0  0
    5.7061   11.9377   26.8446 C   0  0  0  0  0  0  0  0  0  0  0  0
    6.9360   12.2434   26.0564 C   0  0  0  0  0  0  0  0  0  0  0  0
    7.5007   11.0073   25.6504 O   0  0  0  0  0  0  0  0  0  0  0  0
    8.5887   11.0724   24.8303 C   0  0  0  0  0  0  0  0  0  0  0  0
    8.9328    9.8555   24.2507 C   0  0  0  0  0  0  0  0  0  0  0  0
   10.0023    9.7624   23.3738 C   0  0  0  0  0  0  0  0  0  0  0  0
   10.7351   10.9048   23.0482 C   0  0  0  0  0  0  0  0  0  0  0  0
   11.7909   10.7619   22.0189 C   0  0  0  0  0  0  0  0  0  0  0  0
   11.9445    9.6521   21.5093 O   0  0  0  0  0  0  0  0  0  0  0  0
   12.6061   11.9807   21.5975 C   0  0  0  0  0  0  0  0  0  0  0  0
   13.6822   11.6155   20.5680 C   0  0  0  0  0  0  0  0  0  0  0  0
   10.4166   12.1260   23.6467 C   0  0  0  0  0  0  0  0  0  0  0  0
    9.3480   12.2059   24.5455 C   0  0  0  0  0  0  0  0  0  0  0  0
  1  2  2  0
  2  3  1  0
  3  4  1  0
  4  5  1  0
  5  6  2  0
  6  7  1  0
  7  8  2  0
  8  9  1  0
  9 10  2  0
  9 11  1  0
 11 12  1  0
  8 13  1  0
 13 14  2  0
 14  5  1  0
M  END
>  <Crystalforms alias>  (285) 
nan

>  <original ID>  (285) 
RAWORWZDBBYBGK-UHFFFAOYSA-N

>  <alias>  (285) 
None

>  <distance_score>  (285) 
0.344695

>  <CanonSites upload name>  (285) 
nan

>  <CanonSites alias>  (285) 
nan

>  <ConformerSites alias>  (285) 
nan

>  <observation_longname>  (285) 
nan

>  <CrystalformSites alias>  (285) 
nan

>  <tags>  (285) 
[]

>  <ref_mols>  (285) 
A1775a

>  <ref_pdb>  (285) 
A1775a

>  <Quatassemblies upload name>  (285) 
nan

>  <inchikey>  (285) 
RAWORWZDBBYBGK-UHFFFAOYSA-N

>  <Experiment code>  (285) 
nan

>  <Quatassemblies alias>  (285) 
nan

>  <Crystalforms upload name>  (285) 
nan

>  <Centroid res>  (285) 
nan

>  <ConformerSites upload name>  (285) 
nan

>  <energy_score>  (285) 
-10.529062

>  <original SMILES>  (285) 
C=CCOc1ccc(C(=O)CC)cc1

>  <exports>  (285) 
nan

>  <CrystalformSites upload name>  (285) 
nan

>  <name>  (285) 
RAWORWZDBBYBGK-UHFFFAOYSA-N

>  <HIPPO ID>  (285) 
153957

$$$$
QMJBKLCKNNEGDQ-UHFFFAOYSA-N
     RDKit          3D

 14 14  0  0  0  0  0  0  0  0999 V2000
    5.3643   12.3149   28.1262 C   0  0  0  0  0  0  0  0  0  0  0  0
    5.6212   11.8927   26.8817 C   0  0  0  0  0  0  0  0  0  0  0  0
    6.8483   12.2293   26.0977 C   0  0  0  0  0  0  0  0  0  0  0  0
    7.4246   11.0021   25.6704 O   0  0  0  0  0  0  0  0  0  0  0  0
    8.5185   11.0762   24.8592 C   0  0  0  0  0  0  0  0  0  0  0  0
    8.8813    9.8632   24.2785 C   0  0  0  0  0  0  0  0  0  0  0  0
    9.9587    9.7779   23.4084 C   0  0  0  0  0  0  0  0  0  0  0  0
   10.6815   10.9269   23.0928 C   0  0  0  0  0  0  0  0  0  0  0  0
   11.7510   10.8042   22.0763 C   0  0  0  0  0  0  0  0  0  0  0  0
   11.9622    9.7042   21.5593 O   0  0  0  0  0  0  0  0  0  0  0  0
   12.5354   12.0544   21.6692 C   0  0  0  0  0  0  0  0  0  0  0  0
   13.5762   11.6858   20.6820 N   0  0  0  0  0  0  0  0  0  0  0  0
   10.3457   12.1445   23.6929 C   0  0  0  0  0  0  0  0  0  0  0  0
    9.2694   12.2149   24.5829 C   0  0  0  0  0  0  0  0  0  0  0  0
  1  2  2  0
  2  3  1  0
  3  4  1  0
  4  5  1  0
  5  6  2  0
  6  7  1  0
  7  8  2  0
  8  9  1  0
  9 10  2  0
  9 11  1  0
 11 12  1  0
  8 13  1  0
 13 14  2  0
 14  5  1  0
M  END
>  <Crystalforms alias>  (286) 
nan

>  <original ID>  (286) 
QMJBKLCKNNEGDQ-UHFFFAOYSA-N

>  <alias>  (286) 
None

>  <distance_score>  (286) 
0.385056

>  <CanonSites upload name>  (286) 
nan

>  <CanonSites alias>  (286) 
nan

>  <ConformerSites alias>  (286) 
nan

>  <observation_longname>  (286) 
nan

>  <CrystalformSites alias>  (286) 
nan

>  <tags>  (286) 
[]

>  <ref_mols>  (286) 
A1775a

>  <ref_pdb>  (286) 
A1775a

>  <Quatassemblies upload name>  (286) 
nan

>  <inchikey>  (286) 
QMJBKLCKNNEGDQ-UHFFFAOYSA-N

>  <Experiment code>  (286) 
nan

>  <Quatassemblies alias>  (286) 
nan

>  <Crystalforms upload name>  (286) 
nan

>  <Centroid res>  (286) 
nan

>  <ConformerSites upload name>  (286) 
nan

>  <energy_score>  (286) 
-26.427538

>  <original SMILES>  (286) 
C=CCOc1ccc(C(=O)CN)cc1

>  <exports>  (286) 
nan

>  <CrystalformSites upload name>  (286) 
nan

>  <name>  (286) 
QMJBKLCKNNEGDQ-UHFFFAOYSA-N

>  <HIPPO ID>  (286) 
153961

$$$$
NEFVBCHVWLIJEM-UHFFFAOYSA-N
     RDKit          3D

 14 14  0  0  0  0  0  0  0  0999 V2000
    5.0956   10.7795   27.2842 C   0  0  0  0  0  0  0  0  0  0  0  0
    5.5378   11.9723   26.8618 C   0  0  0  0  0  0  0  0  0  0  0  0
    6.7707   12.2296   26.0456 C   0  0  0  0  0  0  0  0  0  0  0  0
    7.3984   11.0056   25.6924 O   0  0  0  0  0  0  0  0  0  0  0  0
    8.4905   11.0761   24.8812 C   0  0  0  0  0  0  0  0  0  0  0  0
    9.2477   12.2109   24.6082 C   0  0  0  0  0  0  0  0  0  0  0  0
   10.3249   12.1347   23.7204 C   0  0  0  0  0  0  0  0  0  0  0  0
   10.6533   10.9149   23.1197 C   0  0  0  0  0  0  0  0  0  0  0  0
   11.7155   10.7815   22.0967 C   0  0  0  0  0  0  0  0  0  0  0  0
   11.8881    9.6698   21.5973 O   0  0  0  0  0  0  0  0  0  0  0  0
   12.4864   12.0262   21.6973 C   0  0  0  0  0  0  0  0  0  0  0  0
   13.7169   11.6027   20.4802 Cl  0  0  0  0  0  0  0  0  0  0  0  0
    9.9245    9.7698   23.4370 C   0  0  0  0  0  0  0  0  0  0  0  0
    8.8481    9.8611   24.3047 C   0  0  0  0  0  0  0  0  0  0  0  0
  1  2  2  0
  2  3  1  0
  3  4  1  0
  4  5  1  0
  5  6  2  0
  6  7  1  0
  7  8  2  0
  8  9  1  0
  9 10  2  0
  9 11  1  0
 11 12  1  0
  8 13  1  0
 13 14  2  0
 14  5  1  0
M  END
>  <Crystalforms alias>  (287) 
nan

>  <original ID>  (287) 
NEFVBCHVWLIJEM-UHFFFAOYSA-N

>  <alias>  (287) 
None

>  <distance_score>  (287) 
0.389971

>  <CanonSites upload name>  (287) 
nan

>  <CanonSites alias>  (287) 
nan

>  <ConformerSites alias>  (287) 
nan

>  <observation_longname>  (287) 
nan

>  <CrystalformSites alias>  (287) 
nan

>  <tags>  (287) 
[]

>  <ref_mols>  (287) 
A1775a

>  <ref_pdb>  (287) 
A1775a

>  <Quatassemblies upload name>  (287) 
nan

>  <inchikey>  (287) 
NEFVBCHVWLIJEM-UHFFFAOYSA-N

>  <Experiment code>  (287) 
nan

>  <Quatassemblies alias>  (287) 
nan

>  <Crystalforms upload name>  (287) 
nan

>  <Centroid res>  (287) 
nan

>  <ConformerSites upload name>  (287) 
nan

>  <energy_score>  (287) 
-25.021349

>  <original SMILES>  (287) 
C=CCOc1ccc(C(=O)CCl)cc1

>  <exports>  (287) 
nan

>  <CrystalformSites upload name>  (287) 
nan

>  <name>  (287) 
NEFVBCHVWLIJEM-UHFFFAOYSA-N

>  <HIPPO ID>  (287) 
153987

$$$$
YISCRASURPUSBT-UHFFFAOYSA-N
     RDKit          3D

 14 15  0  0  0  0  0  0  0  0999 V2000
    5.2111   12.5671   27.7783 C   0  0  0  0  0  0  0  0  0  0  0  0
    5.6184   11.9511   26.6611 C   0  0  0  0  0  0  0  0  0  0  0  0
    6.8752   12.2507   25.9062 C   0  0  0  0  0  0  0  0  0  0  0  0
    7.5231   11.0135   25.6409 O   0  0  0  0  0  0  0  0  0  0  0  0
    8.5970   11.0480   24.7945 C   0  0  0  0  0  0  0  0  0  0  0  0
    8.9295    9.7959   24.2473 C   0  0  0  0  0  0  0  0  0  0  0  0
    9.9896    9.6432   23.3653 C   0  0  0  0  0  0  0  0  0  0  0  0
   10.6871   10.7822   23.0419 C   0  0  0  0  0  0  0  0  0  0  0  0
   10.3971   12.0336   23.5684 C   0  0  0  0  0  0  0  0  0  0  0  0
    9.3500   12.1796   24.4671 C   0  0  0  0  0  0  0  0  0  0  0  0
   11.3026   13.0935   23.0234 C   0  0  0  0  0  0  0  0  0  0  0  0
   12.2049   12.3650   22.0335 C   0  0  0  0  0  0  0  0  0  0  0  0
   11.7629   10.9178   22.0841 C   0  0  0  0  0  0  0  0  0  0  0  0
   12.1812    9.9786   21.4300 O   0  0  0  0  0  0  0  0  0  0  0  0
  1  2  2  0
  2  3  1  0
  3  4  1  0
  4  5  1  0
  5  6  2  0
  6  7  1  0
  7  8  2  0
  8  9  1  0
  9 10  2  0
  9 11  1  0
 11 12  1  0
 12 13  1  0
 13 14  2  0
 10  5  1  0
 13  8  1  0
M  END
>  <Crystalforms alias>  (288) 
nan

>  <original ID>  (288) 
YISCRASURPUSBT-UHFFFAOYSA-N

>  <alias>  (288) 
None

>  <distance_score>  (288) 
1.135555

>  <CanonSites upload name>  (288) 
nan

>  <CanonSites alias>  (288) 
nan

>  <ConformerSites alias>  (288) 
nan

>  <observation_longname>  (288) 
nan

>  <CrystalformSites alias>  (288) 
nan

>  <tags>  (288) 
[]

>  <ref_mols>  (288) 
A1775a

>  <ref_pdb>  (288) 
A1775a

>  <Quatassemblies upload name>  (288) 
nan

>  <inchikey>  (288) 
YISCRASURPUSBT-UHFFFAOYSA-N

>  <Experiment code>  (288) 
nan

>  <Quatassemblies alias>  (288) 
nan

>  <Crystalforms upload name>  (288) 
nan

>  <Centroid res>  (288) 
nan

>  <ConformerSites upload name>  (288) 
nan

>  <energy_score>  (288) 
-14.837416

>  <original SMILES>  (288) 
C=CCOc1ccc2c(c1)CCC2=O

>  <exports>  (288) 
nan

>  <CrystalformSites upload name>  (288) 
nan

>  <name>  (288) 
YISCRASURPUSBT-UHFFFAOYSA-N

>  <HIPPO ID>  (288) 
154026

$$$$
KLEUQKRCMYGEBO-UHFFFAOYSA-N
     RDKit          3D

 14 14  0  0  0  0  0  0  0  0999 V2000
    5.2133   12.0665   26.2492 C   0  0  0  0  0  0  0  0  0  0  0  0
    6.7166   12.2728   26.3144 C   0  0  0  0  0  0  0  0  0  0  0  0
    7.1036   12.5319   27.7616 C   0  0  0  0  0  0  0  0  0  0  0  0
    7.3476   11.0817   25.8486 O   0  0  0  0  0  0  0  0  0  0  0  0
    8.4282   11.1519   25.0207 C   0  0  0  0  0  0  0  0  0  0  0  0
    9.2285   12.2605   24.7702 C   0  0  0  0  0  0  0  0  0  0  0  0
   10.2926   12.1712   23.8590 C   0  0  0  0  0  0  0  0  0  0  0  0
   10.5758   10.9596   23.2167 C   0  0  0  0  0  0  0  0  0  0  0  0
   11.6337   10.8079   22.1846 C   0  0  0  0  0  0  0  0  0  0  0  0
   11.7982    9.6903   21.6940 O   0  0  0  0  0  0  0  0  0  0  0  0
   12.4132   12.0438   21.7696 C   0  0  0  0  0  0  0  0  0  0  0  0
   13.6319   11.6035   20.5405 Cl  0  0  0  0  0  0  0  0  0  0  0  0
    9.8084    9.8360   23.5155 C   0  0  0  0  0  0  0  0  0  0  0  0
    8.7436    9.9442   24.4006 C   0  0  0  0  0  0  0  0  0  0  0  0
  1  2  1  0
  2  3  1  0
  2  4  1  0
  4  5  1  0
  5  6  2  0
  6  7  1  0
  7  8  2  0
  8  9  1  0
  9 10  2  0
  9 11  1  0
 11 12  1  0
  8 13  1  0
 13 14  2  0
 14  5  1  0
M  END
>  <Crystalforms alias>  (289) 
nan

>  <original ID>  (289) 
KLEUQKRCMYGEBO-UHFFFAOYSA-N

>  <alias>  (289) 
None

>  <distance_score>  (289) 
0.483032

>  <CanonSites upload name>  (289) 
nan

>  <CanonSites alias>  (289) 
nan

>  <ConformerSites alias>  (289) 
nan

>  <observation_longname>  (289) 
nan

>  <CrystalformSites alias>  (289) 
nan

>  <tags>  (289) 
[]

>  <ref_mols>  (289) 
A1775a

>  <ref_pdb>  (289) 
A1775a

>  <Quatassemblies upload name>  (289) 
nan

>  <inchikey>  (289) 
KLEUQKRCMYGEBO-UHFFFAOYSA-N

>  <Experiment code>  (289) 
nan

>  <Quatassemblies alias>  (289) 
nan

>  <Crystalforms upload name>  (289) 
nan

>  <Centroid res>  (289) 
nan

>  <ConformerSites upload name>  (289) 
nan

>  <energy_score>  (289) 
-59.400822

>  <original SMILES>  (289) 
CC(C)Oc1ccc(C(=O)CCl)cc1

>  <exports>  (289) 
nan

>  <CrystalformSites upload name>  (289) 
nan

>  <name>  (289) 
KLEUQKRCMYGEBO-UHFFFAOYSA-N

>  <HIPPO ID>  (289) 
154036

$$$$
UQVJVUWEYMWXOL-UHFFFAOYSA-N
     RDKit          3D

 14 14  0  0  0  0  0  0  0  0999 V2000
   13.6547   11.6162   20.5895 C   0  0  0  0  0  0  0  0  0  0  0  0
   12.5826   11.9857   21.6228 C   0  0  0  0  0  0  0  0  0  0  0  0
   11.7654   10.7690   22.0494 C   0  0  0  0  0  0  0  0  0  0  0  0
   11.9146    9.6579   21.5411 O   0  0  0  0  0  0  0  0  0  0  0  0
   10.7113   10.9172   23.0814 C   0  0  0  0  0  0  0  0  0  0  0  0
   10.3933   12.1406   23.6745 C   0  0  0  0  0  0  0  0  0  0  0  0
    9.3146   12.2299   24.5628 C   0  0  0  0  0  0  0  0  0  0  0  0
    8.5408   11.1060   24.8420 C   0  0  0  0  0  0  0  0  0  0  0  0
    7.4238   11.0489   25.6226 O   0  0  0  0  0  0  0  0  0  0  0  0
    6.8295   12.2617   26.0794 C   0  0  0  0  0  0  0  0  0  0  0  0
    6.0489   12.9446   24.9644 C   0  0  0  0  0  0  0  0  0  0  0  0
    5.8665   11.8851   27.2007 C   0  0  0  0  0  0  0  0  0  0  0  0
    8.8935    9.8839   24.2763 C   0  0  0  0  0  0  0  0  0  0  0  0
    9.9730    9.7799   23.4109 C   0  0  0  0  0  0  0  0  0  0  0  0
  1  2  1  0
  2  3  1  0
  3  4  2  0
  3  5  1  0
  5  6  2  0
  6  7  1  0
  7  8  2  0
  8  9  1  0
  9 10  1  0
 10 11  1  0
 10 12  1  0
  8 13  1  0
 13 14  2  0
 14  5  1  0
M  END
>  <Crystalforms alias>  (290) 
nan

>  <original ID>  (290) 
UQVJVUWEYMWXOL-UHFFFAOYSA-N

>  <alias>  (290) 
None

>  <distance_score>  (290) 
0.397145

>  <CanonSites upload name>  (290) 
nan

>  <CanonSites alias>  (290) 
nan

>  <ConformerSites alias>  (290) 
nan

>  <observation_longname>  (290) 
nan

>  <CrystalformSites alias>  (290) 
nan

>  <tags>  (290) 
[]

>  <ref_mols>  (290) 
A1775a

>  <ref_pdb>  (290) 
A1775a

>  <Quatassemblies upload name>  (290) 
nan

>  <inchikey>  (290) 
UQVJVUWEYMWXOL-UHFFFAOYSA-N

>  <Experiment code>  (290) 
nan

>  <Quatassemblies alias>  (290) 
nan

>  <Crystalforms upload name>  (290) 
nan

>  <Centroid res>  (290) 
nan

>  <ConformerSites upload name>  (290) 
nan

>  <energy_score>  (290) 
-14.594551

>  <original SMILES>  (290) 
CCC(=O)c1ccc(OC(C)C)cc1

>  <exports>  (290) 
nan

>  <CrystalformSites upload name>  (290) 
nan

>  <name>  (290) 
UQVJVUWEYMWXOL-UHFFFAOYSA-N

>  <HIPPO ID>  (290) 
154047

$$$$
KFGKJJVXITYMOR-UHFFFAOYSA-N
     RDKit          3D

 14 14  0  0  0  0  0  0  0  0999 V2000
    6.0158   12.9364   25.0107 C   0  0  0  0  0  0  0  0  0  0  0  0
    6.7705   12.2161   26.1206 C   0  0  0  0  0  0  0  0  0  0  0  0
    5.7886   11.8265   27.2200 C   0  0  0  0  0  0  0  0  0  0  0  0
    7.3574   11.0051   25.6446 O   0  0  0  0  0  0  0  0  0  0  0  0
    8.4856   11.0712   24.8810 C   0  0  0  0  0  0  0  0  0  0  0  0
    8.8469    9.8630   24.2873 C   0  0  0  0  0  0  0  0  0  0  0  0
    9.9316    9.7797   23.4246 C   0  0  0  0  0  0  0  0  0  0  0  0
   10.6642   10.9274   23.1341 C   0  0  0  0  0  0  0  0  0  0  0  0
   11.7241   10.8313   22.1049 C   0  0  0  0  0  0  0  0  0  0  0  0
   11.9418    9.7469   21.5601 O   0  0  0  0  0  0  0  0  0  0  0  0
   12.4862   12.1049   21.7333 C   0  0  0  0  0  0  0  0  0  0  0  0
   13.5026   11.8031   20.7059 N   0  0  0  0  0  0  0  0  0  0  0  0
   10.3438   12.1336   23.7647 C   0  0  0  0  0  0  0  0  0  0  0  0
    9.2618   12.2003   24.6446 C   0  0  0  0  0  0  0  0  0  0  0  0
  1  2  1  0
  2  3  1  0
  2  4  1  0
  4  5  1  0
  5  6  2  0
  6  7  1  0
  7  8  2  0
  8  9  1  0
  9 10  2  0
  9 11  1  0
 11 12  1  0
  8 13  1  0
 13 14  2  0
 14  5  1  0
M  END
>  <Crystalforms alias>  (291) 
nan

>  <original ID>  (291) 
KFGKJJVXITYMOR-UHFFFAOYSA-N

>  <alias>  (291) 
None

>  <distance_score>  (291) 
0.445763

>  <CanonSites upload name>  (291) 
nan

>  <CanonSites alias>  (291) 
nan

>  <ConformerSites alias>  (291) 
nan

>  <observation_longname>  (291) 
nan

>  <CrystalformSites alias>  (291) 
nan

>  <tags>  (291) 
[]

>  <ref_mols>  (291) 
A1775a

>  <ref_pdb>  (291) 
A1775a

>  <Quatassemblies upload name>  (291) 
nan

>  <inchikey>  (291) 
KFGKJJVXITYMOR-UHFFFAOYSA-N

>  <Experiment code>  (291) 
nan

>  <Quatassemblies alias>  (291) 
nan

>  <Crystalforms upload name>  (291) 
nan

>  <Centroid res>  (291) 
nan

>  <ConformerSites upload name>  (291) 
nan

>  <energy_score>  (291) 
-31.409976

>  <original SMILES>  (291) 
CC(C)Oc1ccc(C(=O)CN)cc1

>  <exports>  (291) 
nan

>  <CrystalformSites upload name>  (291) 
nan

>  <name>  (291) 
KFGKJJVXITYMOR-UHFFFAOYSA-N

>  <HIPPO ID>  (291) 
154062

$$$$
WRMLGNJEOPKSSD-UHFFFAOYSA-N
     RDKit          3D

 14 14  0  0  0  0  0  0  0  0999 V2000
    5.7900   11.3140   28.1231 C   0  0  0  0  0  0  0  0  0  0  0  0
    5.5693   12.0555   26.8140 C   0  0  0  0  0  0  0  0  0  0  0  0
    6.8675   12.3020   26.0541 C   0  0  0  0  0  0  0  0  0  0  0  0
    7.4386   11.0573   25.6702 O   0  0  0  0  0  0  0  0  0  0  0  0
    8.5377   11.1093   24.8612 C   0  0  0  0  0  0  0  0  0  0  0  0
    8.8832    9.8887   24.2893 C   0  0  0  0  0  0  0  0  0  0  0  0
    9.9583    9.7864   23.4175 C   0  0  0  0  0  0  0  0  0  0  0  0
   10.6992   10.9231   23.0891 C   0  0  0  0  0  0  0  0  0  0  0  0
   11.7544   10.7735   22.0575 C   0  0  0  0  0  0  0  0  0  0  0  0
   11.8968    9.6641   21.5429 O   0  0  0  0  0  0  0  0  0  0  0  0
   12.5751   11.9887   21.6326 C   0  0  0  0  0  0  0  0  0  0  0  0
   13.6458   11.6169   20.5983 C   0  0  0  0  0  0  0  0  0  0  0  0
   10.3840   12.1465   23.6850 C   0  0  0  0  0  0  0  0  0  0  0  0
    9.3088   12.2351   24.5778 C   0  0  0  0  0  0  0  0  0  0  0  0
  1  2  1  0
  2  3  1  0
  3  4  1  0
  4  5  1  0
  5  6  2  0
  6  7  1  0
  7  8  2  0
  8  9  1  0
  9 10  2  0
  9 11  1  0
 11 12  1  0
  8 13  1  0
 13 14  2  0
 14  5  1  0
M  END
>  <Crystalforms alias>  (292) 
nan

>  <original ID>  (292) 
WRMLGNJEOPKSSD-UHFFFAOYSA-N

>  <alias>  (292) 
None

>  <distance_score>  (292) 
0.362275

>  <CanonSites upload name>  (292) 
nan

>  <CanonSites alias>  (292) 
nan

>  <ConformerSites alias>  (292) 
nan

>  <observation_longname>  (292) 
nan

>  <CrystalformSites alias>  (292) 
nan

>  <tags>  (292) 
[]

>  <ref_mols>  (292) 
A1775a

>  <ref_pdb>  (292) 
A1775a

>  <Quatassemblies upload name>  (292) 
nan

>  <inchikey>  (292) 
WRMLGNJEOPKSSD-UHFFFAOYSA-N

>  <Experiment code>  (292) 
nan

>  <Quatassemblies alias>  (292) 
nan

>  <Crystalforms upload name>  (292) 
nan

>  <Centroid res>  (292) 
nan

>  <ConformerSites upload name>  (292) 
nan

>  <energy_score>  (292) 
-19.459396

>  <original SMILES>  (292) 
CCCOc1ccc(C(=O)CC)cc1

>  <exports>  (292) 
nan

>  <CrystalformSites upload name>  (292) 
nan

>  <name>  (292) 
WRMLGNJEOPKSSD-UHFFFAOYSA-N

>  <HIPPO ID>  (292) 
154271

$$$$
TULXEKSOMKGJTK-UHFFFAOYSA-N
     RDKit          3D

 14 14  0  0  0  0  0  0  0  0999 V2000
    5.7331   12.0277   28.1568 C   0  0  0  0  0  0  0  0  0  0  0  0
    5.3856   11.9963   26.6756 C   0  0  0  0  0  0  0  0  0  0  0  0
    6.6066   12.2243   25.7927 C   0  0  0  0  0  0  0  0  0  0  0  0
    7.4298   11.0604   25.8101 O   0  0  0  0  0  0  0  0  0  0  0  0
    8.4902   11.1000   24.9490 C   0  0  0  0  0  0  0  0  0  0  0  0
    9.2638   12.2281   24.6965 C   0  0  0  0  0  0  0  0  0  0  0  0
   10.3246   12.1567   23.7934 C   0  0  0  0  0  0  0  0  0  0  0  0
   10.6268   10.9471   23.1583 C   0  0  0  0  0  0  0  0  0  0  0  0
   11.6885   10.8404   22.1316 C   0  0  0  0  0  0  0  0  0  0  0  0
   11.8963    9.7541   21.5864 O   0  0  0  0  0  0  0  0  0  0  0  0
   12.4606   12.1092   21.7629 C   0  0  0  0  0  0  0  0  0  0  0  0
   13.4742   11.7987   20.7403 N   0  0  0  0  0  0  0  0  0  0  0  0
    9.8855    9.8049   23.4549 C   0  0  0  0  0  0  0  0  0  0  0  0
    8.8211    9.8913   24.3431 C   0  0  0  0  0  0  0  0  0  0  0  0
  1  2  1  0
  2  3  1  0
  3  4  1  0
  4  5  1  0
  5  6  2  0
  6  7  1  0
  7  8  2  0
  8  9  1  0
  9 10  2  0
  9 11  1  0
 11 12  1  0
  8 13  1  0
 13 14  2  0
 14  5  1  0
M  END
>  <Crystalforms alias>  (293) 
nan

>  <original ID>  (293) 
TULXEKSOMKGJTK-UHFFFAOYSA-N

>  <alias>  (293) 
None

>  <distance_score>  (293) 
0.449231

>  <CanonSites upload name>  (293) 
nan

>  <CanonSites alias>  (293) 
nan

>  <ConformerSites alias>  (293) 
nan

>  <observation_longname>  (293) 
nan

>  <CrystalformSites alias>  (293) 
nan

>  <tags>  (293) 
[]

>  <ref_mols>  (293) 
A1775a

>  <ref_pdb>  (293) 
A1775a

>  <Quatassemblies upload name>  (293) 
nan

>  <inchikey>  (293) 
TULXEKSOMKGJTK-UHFFFAOYSA-N

>  <Experiment code>  (293) 
nan

>  <Quatassemblies alias>  (293) 
nan

>  <Crystalforms upload name>  (293) 
nan

>  <Centroid res>  (293) 
nan

>  <ConformerSites upload name>  (293) 
nan

>  <energy_score>  (293) 
-14.779236

>  <original SMILES>  (293) 
CCCOc1ccc(C(=O)CN)cc1

>  <exports>  (293) 
nan

>  <CrystalformSites upload name>  (293) 
nan

>  <name>  (293) 
TULXEKSOMKGJTK-UHFFFAOYSA-N

>  <HIPPO ID>  (293) 
154295

$$$$
DIBGMIDKOYXIGL-UHFFFAOYSA-N
     RDKit          3D

 14 15  0  0  0  0  0  0  0  0999 V2000
    5.2644   12.8808   27.8453 C   0  0  0  0  0  0  0  0  0  0  0  0
    5.7916   11.7299   27.0135 C   0  0  0  0  0  0  0  0  0  0  0  0
    6.9564   12.1336   26.1160 C   0  0  0  0  0  0  0  0  0  0  0  0
    7.4530   10.9356   25.5332 O   0  0  0  0  0  0  0  0  0  0  0  0
    8.5584   11.0037   24.7372 C   0  0  0  0  0  0  0  0  0  0  0  0
    8.9411    9.7556   24.2111 C   0  0  0  0  0  0  0  0  0  0  0  0
   10.0244    9.6214   23.3570 C   0  0  0  0  0  0  0  0  0  0  0  0
   10.6887   10.7778   23.0307 C   0  0  0  0  0  0  0  0  0  0  0  0
   10.3451   12.0281   23.5288 C   0  0  0  0  0  0  0  0  0  0  0  0
    9.2762   12.1543   24.4057 C   0  0  0  0  0  0  0  0  0  0  0  0
   11.1992   13.1120   22.9481 C   0  0  0  0  0  0  0  0  0  0  0  0
   12.1866   12.3867   22.0397 C   0  0  0  0  0  0  0  0  0  0  0  0
   11.7694   10.9331   22.0826 C   0  0  0  0  0  0  0  0  0  0  0  0
   12.2095   10.0022   21.4308 O   0  0  0  0  0  0  0  0  0  0  0  0
  1  2  1  0
  2  3  1  0
  3  4  1  0
  4  5  1  0
  5  6  2  0
  6  7  1  0
  7  8  2  0
  8  9  1  0
  9 10  2  0
  9 11  1  0
 11 12  1  0
 12 13  1  0
 13 14  2  0
 10  5  1  0
 13  8  1  0
M  END
>  <Crystalforms alias>  (294) 
nan

>  <original ID>  (294) 
DIBGMIDKOYXIGL-UHFFFAOYSA-N

>  <alias>  (294) 
None

>  <distance_score>  (294) 
1.160515

>  <CanonSites upload name>  (294) 
nan

>  <CanonSites alias>  (294) 
nan

>  <ConformerSites alias>  (294) 
nan

>  <observation_longname>  (294) 
nan

>  <CrystalformSites alias>  (294) 
nan

>  <tags>  (294) 
[]

>  <ref_mols>  (294) 
A1775a

>  <ref_pdb>  (294) 
A1775a

>  <Quatassemblies upload name>  (294) 
nan

>  <inchikey>  (294) 
DIBGMIDKOYXIGL-UHFFFAOYSA-N

>  <Experiment code>  (294) 
nan

>  <Quatassemblies alias>  (294) 
nan

>  <Crystalforms upload name>  (294) 
nan

>  <Centroid res>  (294) 
nan

>  <ConformerSites upload name>  (294) 
nan

>  <energy_score>  (294) 
-18.566732

>  <original SMILES>  (294) 
CCCOc1ccc2c(c1)CCC2=O

>  <exports>  (294) 
nan

>  <CrystalformSites upload name>  (294) 
nan

>  <name>  (294) 
DIBGMIDKOYXIGL-UHFFFAOYSA-N

>  <HIPPO ID>  (294) 
154313

$$$$
JODWHHMIVWXMRT-UHFFFAOYSA-N
     RDKit          3D

 14 14  0  0  0  0  0  0  0  0999 V2000
    4.7620   11.5190   26.7114 C   0  0  0  0  0  0  0  0  0  0  0  0
    5.9928   12.1230   27.3451 C   0  0  0  0  0  0  0  0  0  0  0  0
    7.0899   12.3561   26.3201 C   0  0  0  0  0  0  0  0  0  0  0  0
    7.4994   11.1120   25.7690 O   0  0  0  0  0  0  0  0  0  0  0  0
    8.5600   11.1477   24.9115 C   0  0  0  0  0  0  0  0  0  0  0  0
    9.3308   12.2657   24.6037 C   0  0  0  0  0  0  0  0  0  0  0  0
   10.3842   12.1618   23.6957 C   0  0  0  0  0  0  0  0  0  0  0  0
   10.6759   10.9314   23.1013 C   0  0  0  0  0  0  0  0  0  0  0  0
   11.7314   10.7789   22.0750 C   0  0  0  0  0  0  0  0  0  0  0  0
   11.8915    9.6628   21.5827 O   0  0  0  0  0  0  0  0  0  0  0  0
   12.5116   12.0168   21.6693 C   0  0  0  0  0  0  0  0  0  0  0  0
   13.7432   11.5897   20.4603 Cl  0  0  0  0  0  0  0  0  0  0  0  0
    9.9229    9.8051   23.4328 C   0  0  0  0  0  0  0  0  0  0  0  0
    8.8659    9.9240   24.3233 C   0  0  0  0  0  0  0  0  0  0  0  0
  1  2  1  0
  2  3  1  0
  3  4  1  0
  4  5  1  0
  5  6  2  0
  6  7  1  0
  7  8  2  0
  8  9  1  0
  9 10  2  0
  9 11  1  0
 11 12  1  0
  8 13  1  0
 13 14  2  0
 14  5  1  0
M  END
>  <Crystalforms alias>  (295) 
nan

>  <original ID>  (295) 
JODWHHMIVWXMRT-UHFFFAOYSA-N

>  <alias>  (295) 
None

>  <distance_score>  (295) 
0.450334

>  <CanonSites upload name>  (295) 
nan

>  <CanonSites alias>  (295) 
nan

>  <ConformerSites alias>  (295) 
nan

>  <observation_longname>  (295) 
nan

>  <CrystalformSites alias>  (295) 
nan

>  <tags>  (295) 
[]

>  <ref_mols>  (295) 
A1775a

>  <ref_pdb>  (295) 
A1775a

>  <Quatassemblies upload name>  (295) 
nan

>  <inchikey>  (295) 
JODWHHMIVWXMRT-UHFFFAOYSA-N

>  <Experiment code>  (295) 
nan

>  <Quatassemblies alias>  (295) 
nan

>  <Crystalforms upload name>  (295) 
nan

>  <Centroid res>  (295) 
nan

>  <ConformerSites upload name>  (295) 
nan

>  <energy_score>  (295) 
-18.48998

>  <original SMILES>  (295) 
CCCOc1ccc(C(=O)CCl)cc1

>  <exports>  (295) 
nan

>  <CrystalformSites upload name>  (295) 
nan

>  <name>  (295) 
JODWHHMIVWXMRT-UHFFFAOYSA-N

>  <HIPPO ID>  (295) 
154381

$$$$
WECHHDJTILFYQT-UHFFFAOYSA-N
     RDKit          3D

 13 13  0  0  0  0  0  0  0  0999 V2000
    5.6240   11.8077   27.3948 C   0  0  0  0  0  0  0  0  0  0  0  0
    7.0272   11.9448   26.8635 C   0  0  0  0  0  0  0  0  0  0  0  0
    7.7689   12.8313   27.2785 O   0  0  0  0  0  0  0  0  0  0  0  0
    7.3572   10.9558   25.9581 N   0  0  0  0  0  0  0  0  0  0  0  0
    8.4935   10.9183   25.1333 C   0  0  0  0  0  0  0  0  0  0  0  0
    8.7287    9.7548   24.3966 C   0  0  0  0  0  0  0  0  0  0  0  0
    9.7960    9.6734   23.5005 C   0  0  0  0  0  0  0  0  0  0  0  0
   10.6225   10.7789   23.3124 C   0  0  0  0  0  0  0  0  0  0  0  0
   11.6708   10.7425   22.2636 C   0  0  0  0  0  0  0  0  0  0  0  0
   12.4073   12.0320   21.9441 C   0  0  0  0  0  0  0  0  0  0  0  0
   11.8771    9.6942   21.6536 O   0  0  0  0  0  0  0  0  0  0  0  0
   10.4028   11.9294   24.0656 C   0  0  0  0  0  0  0  0  0  0  0  0
    9.3513   11.9989   24.9761 C   0  0  0  0  0  0  0  0  0  0  0  0
  1  2  1  0
  2  3  2  0
  2  4  1  0
  4  5  1  0
  5  6  2  0
  6  7  1  0
  7  8  2  0
  8  9  1  0
  9 10  1  0
  9 11  2  0
  8 12  1  0
 12 13  2  0
 13  5  1  0
M  END
>  <Crystalforms alias>  (296) 
nan

>  <original ID>  (296) 
WECHHDJTILFYQT-UHFFFAOYSA-N

>  <alias>  (296) 
None

>  <distance_score>  (296) 
0.572387

>  <CanonSites upload name>  (296) 
nan

>  <CanonSites alias>  (296) 
nan

>  <ConformerSites alias>  (296) 
nan

>  <observation_longname>  (296) 
nan

>  <CrystalformSites alias>  (296) 
nan

>  <tags>  (296) 
['Syndirella scaffold']

>  <ref_mols>  (296) 
A1776a

>  <ref_pdb>  (296) 
A1776a

>  <Quatassemblies upload name>  (296) 
nan

>  <inchikey>  (296) 
WECHHDJTILFYQT-UHFFFAOYSA-N

>  <Experiment code>  (296) 
nan

>  <Quatassemblies alias>  (296) 
nan

>  <Crystalforms upload name>  (296) 
nan

>  <Centroid res>  (296) 
nan

>  <ConformerSites upload name>  (296) 
nan

>  <energy_score>  (296) 
-13.116022

>  <original SMILES>  (296) 
CC(=O)Nc1ccc(C(C)=O)cc1

>  <exports>  (296) 
nan

>  <CrystalformSites upload name>  (296) 
nan

>  <name>  (296) 
WECHHDJTILFYQT-UHFFFAOYSA-N

>  <HIPPO ID>  (296) 
158705

$$$$
LOVVDWAISSOSRE-UHFFFAOYSA-N
     RDKit          3D

 14 14  0  0  0  0  0  0  0  0999 V2000
   12.4000   12.0232   21.9457 C   0  0  0  0  0  0  0  0  0  0  0  0
   11.6673   10.7323   22.2711 C   0  0  0  0  0  0  0  0  0  0  0  0
   11.8675    9.6848   21.6581 O   0  0  0  0  0  0  0  0  0  0  0  0
   10.6238   10.7707   23.3248 C   0  0  0  0  0  0  0  0  0  0  0  0
    9.7611    9.6887   23.4839 C   0  0  0  0  0  0  0  0  0  0  0  0
    8.6889    9.7871   24.3729 C   0  0  0  0  0  0  0  0  0  0  0  0
    8.4864   10.9424   25.1315 C   0  0  0  0  0  0  0  0  0  0  0  0
    7.3417   11.0076   25.9417 N   0  0  0  0  0  0  0  0  0  0  0  0
    7.0652   11.9623   26.9063 C   0  0  0  0  0  0  0  0  0  0  0  0
    7.8655   12.7761   27.3666 O   0  0  0  0  0  0  0  0  0  0  0  0
    5.6368   11.8300   27.4563 C   0  0  0  0  0  0  0  0  0  0  0  0
    5.3342   12.9165   28.4001 N   0  0  0  0  0  0  0  0  0  0  0  0
    9.3854   11.9931   25.0108 C   0  0  0  0  0  0  0  0  0  0  0  0
   10.4418   11.9071   24.1083 C   0  0  0  0  0  0  0  0  0  0  0  0
  1  2  1  0
  2  3  2  0
  2  4  1  0
  4  5  2  0
  5  6  1  0
  6  7  2  0
  7  8  1  0
  8  9  1  0
  9 10  2  0
  9 11  1  0
 11 12  1  0
  7 13  1  0
 13 14  2  0
 14  4  1  0
M  END
>  <Crystalforms alias>  (297) 
nan

>  <original ID>  (297) 
LOVVDWAISSOSRE-UHFFFAOYSA-N

>  <alias>  (297) 
None

>  <distance_score>  (297) 
0.809501

>  <CanonSites upload name>  (297) 
nan

>  <CanonSites alias>  (297) 
nan

>  <ConformerSites alias>  (297) 
nan

>  <observation_longname>  (297) 
nan

>  <CrystalformSites alias>  (297) 
nan

>  <tags>  (297) 
[]

>  <ref_mols>  (297) 
A1776a

>  <ref_pdb>  (297) 
A1776a

>  <Quatassemblies upload name>  (297) 
nan

>  <inchikey>  (297) 
LOVVDWAISSOSRE-UHFFFAOYSA-N

>  <Experiment code>  (297) 
nan

>  <Quatassemblies alias>  (297) 
nan

>  <Crystalforms upload name>  (297) 
nan

>  <Centroid res>  (297) 
nan

>  <ConformerSites upload name>  (297) 
nan

>  <energy_score>  (297) 
-7.932873

>  <original SMILES>  (297) 
CC(=O)c1ccc(NC(=O)CN)cc1

>  <exports>  (297) 
nan

>  <CrystalformSites upload name>  (297) 
nan

>  <name>  (297) 
LOVVDWAISSOSRE-UHFFFAOYSA-N

>  <HIPPO ID>  (297) 
158717

$$$$
ZLGXOIGFHQTJFD-UHFFFAOYSA-N
     RDKit          3D

 14 14  0  0  0  0  0  0  0  0999 V2000
   12.3962   12.0268   21.9486 C   0  0  0  0  0  0  0  0  0  0  0  0
   11.6711   10.7310   22.2703 C   0  0  0  0  0  0  0  0  0  0  0  0
   11.8755    9.6873   21.6522 O   0  0  0  0  0  0  0  0  0  0  0  0
   10.6311   10.7591   23.3275 C   0  0  0  0  0  0  0  0  0  0  0  0
   10.4495   11.8881   24.1222 C   0  0  0  0  0  0  0  0  0  0  0  0
    9.3940   11.9645   25.0271 C   0  0  0  0  0  0  0  0  0  0  0  0
    8.4968   10.9112   25.1381 C   0  0  0  0  0  0  0  0  0  0  0  0
    7.3537   10.9643   25.9455 N   0  0  0  0  0  0  0  0  0  0  0  0
    7.0155   11.9425   26.8617 C   0  0  0  0  0  0  0  0  0  0  0  0
    7.7368   12.8422   27.2824 O   0  0  0  0  0  0  0  0  0  0  0  0
    5.5766   11.7747   27.3524 C   0  0  0  0  0  0  0  0  0  0  0  0
    5.1385   10.4210   27.3320 O   0  0  0  0  0  0  0  0  0  0  0  0
    8.7024    9.7620   24.3719 C   0  0  0  0  0  0  0  0  0  0  0  0
    9.7720    9.6735   23.4796 C   0  0  0  0  0  0  0  0  0  0  0  0
  1  2  1  0
  2  3  2  0
  2  4  1  0
  4  5  2  0
  5  6  1  0
  6  7  2  0
  7  8  1  0
  8  9  1  0
  9 10  2  0
  9 11  1  0
 11 12  1  0
  7 13  1  0
 13 14  2  0
 14  4  1  0
M  END
>  <Crystalforms alias>  (298) 
nan

>  <original ID>  (298) 
ZLGXOIGFHQTJFD-UHFFFAOYSA-N

>  <alias>  (298) 
None

>  <distance_score>  (298) 
0.904171

>  <CanonSites upload name>  (298) 
nan

>  <CanonSites alias>  (298) 
nan

>  <ConformerSites alias>  (298) 
nan

>  <observation_longname>  (298) 
nan

>  <CrystalformSites alias>  (298) 
nan

>  <tags>  (298) 
[]

>  <ref_mols>  (298) 
A1776a

>  <ref_pdb>  (298) 
A1776a

>  <Quatassemblies upload name>  (298) 
nan

>  <inchikey>  (298) 
ZLGXOIGFHQTJFD-UHFFFAOYSA-N

>  <Experiment code>  (298) 
nan

>  <Quatassemblies alias>  (298) 
nan

>  <Crystalforms upload name>  (298) 
nan

>  <Centroid res>  (298) 
nan

>  <ConformerSites upload name>  (298) 
nan

>  <energy_score>  (298) 
-17.851709

>  <original SMILES>  (298) 
CC(=O)c1ccc(NC(=O)CO)cc1

>  <exports>  (298) 
nan

>  <CrystalformSites upload name>  (298) 
nan

>  <name>  (298) 
ZLGXOIGFHQTJFD-UHFFFAOYSA-N

>  <HIPPO ID>  (298) 
158729

$$$$
FLMLTMFETZMOHW-UHFFFAOYSA-N
     RDKit          3D

 14 14  0  0  0  0  0  0  0  0999 V2000
   12.4196   12.0130   21.9239 C   0  0  0  0  0  0  0  0  0  0  0  0
   11.6891   10.7210   22.2538 C   0  0  0  0  0  0  0  0  0  0  0  0
   11.8837    9.6742   21.6380 O   0  0  0  0  0  0  0  0  0  0  0  0
   10.6533   10.7574   23.3143 C   0  0  0  0  0  0  0  0  0  0  0  0
    9.7912    9.6756   23.4814 C   0  0  0  0  0  0  0  0  0  0  0  0
    8.7198    9.7783   24.3714 C   0  0  0  0  0  0  0  0  0  0  0  0
    8.5160   10.9405   25.1188 C   0  0  0  0  0  0  0  0  0  0  0  0
    7.3513   11.0298   25.9004 N   0  0  0  0  0  0  0  0  0  0  0  0
    7.0376   12.0500   26.7907 C   0  0  0  0  0  0  0  0  0  0  0  0
    7.8502   12.8423   27.2618 O   0  0  0  0  0  0  0  0  0  0  0  0
    5.5543   12.0890   27.1141 C   0  0  0  0  0  0  0  0  0  0  0  0
    5.2604   12.8923   28.6673 Cl  0  0  0  0  0  0  0  0  0  0  0  0
    9.4203   11.9871   24.9949 C   0  0  0  0  0  0  0  0  0  0  0  0
   10.4769   11.8953   24.0950 C   0  0  0  0  0  0  0  0  0  0  0  0
  1  2  1  0
  2  3  2  0
  2  4  1  0
  4  5  2  0
  5  6  1  0
  6  7  2  0
  7  8  1  0
  8  9  1  0
  9 10  2  0
  9 11  1  0
 11 12  1  0
  7 13  1  0
 13 14  2  0
 14  4  1  0
M  END
>  <Crystalforms alias>  (299) 
nan

>  <original ID>  (299) 
FLMLTMFETZMOHW-UHFFFAOYSA-N

>  <alias>  (299) 
None

>  <distance_score>  (299) 
0.546633

>  <CanonSites upload name>  (299) 
nan

>  <CanonSites alias>  (299) 
nan

>  <ConformerSites alias>  (299) 
nan

>  <observation_longname>  (299) 
nan

>  <CrystalformSites alias>  (299) 
nan

>  <tags>  (299) 
[]

>  <ref_mols>  (299) 
A1776a

>  <ref_pdb>  (299) 
A1776a

>  <Quatassemblies upload name>  (299) 
nan

>  <inchikey>  (299) 
FLMLTMFETZMOHW-UHFFFAOYSA-N

>  <Experiment code>  (299) 
nan

>  <Quatassemblies alias>  (299) 
nan

>  <Crystalforms upload name>  (299) 
nan

>  <Centroid res>  (299) 
nan

>  <ConformerSites upload name>  (299) 
nan

>  <energy_score>  (299) 
-7.869342

>  <original SMILES>  (299) 
CC(=O)c1ccc(NC(=O)CCl)cc1

>  <exports>  (299) 
nan

>  <CrystalformSites upload name>  (299) 
nan

>  <name>  (299) 
FLMLTMFETZMOHW-UHFFFAOYSA-N

>  <HIPPO ID>  (299) 
158733

$$$$
AQZGQRGEZQQAOT-UHFFFAOYSA-N
     RDKit          3D

 14 14  0  0  0  0  0  0  0  0999 V2000
   12.4201   12.0024   21.9200 C   0  0  0  0  0  0  0  0  0  0  0  0
   11.6809   10.7158   22.2551 C   0  0  0  0  0  0  0  0  0  0  0  0
   11.8718    9.6642   21.6469 O   0  0  0  0  0  0  0  0  0  0  0  0
   10.6432   10.7635   23.3138 C   0  0  0  0  0  0  0  0  0  0  0  0
    9.7830    9.6825   23.5007 C   0  0  0  0  0  0  0  0  0  0  0  0
    8.7159    9.7938   24.3967 C   0  0  0  0  0  0  0  0  0  0  0  0
    8.5140   10.9662   25.1284 C   0  0  0  0  0  0  0  0  0  0  0  0
    7.3631   11.0654   25.9279 N   0  0  0  0  0  0  0  0  0  0  0  0
    7.0508   12.1209   26.7603 C   0  0  0  0  0  0  0  0  0  0  0  0
    7.7772   13.0111   27.1761 O   0  0  0  0  0  0  0  0  0  0  0  0
    5.6046   12.1220   27.1950 C   0  0  0  0  0  0  0  0  0  0  0  0
    5.2843   11.7720   28.3188 O   0  0  0  0  0  0  0  0  0  0  0  0
    9.4152   12.0133   24.9821 C   0  0  0  0  0  0  0  0  0  0  0  0
   10.4663   11.9121   24.0775 C   0  0  0  0  0  0  0  0  0  0  0  0
  1  2  1  0
  2  3  2  0
  2  4  1  0
  4  5  2  0
  5  6  1  0
  6  7  2  0
  7  8  1  0
  8  9  1  0
  9 10  2  0
  9 11  1  0
 11 12  2  0
  7 13  1  0
 13 14  2  0
 14  4  1  0
M  END
>  <Crystalforms alias>  (300) 
nan

>  <original ID>  (300) 
AQZGQRGEZQQAOT-UHFFFAOYSA-N

>  <alias>  (300) 
None

>  <distance_score>  (300) 
0.788805

>  <CanonSites upload name>  (300) 
nan

>  <CanonSites alias>  (300) 
nan

>  <ConformerSites alias>  (300) 
nan

>  <observation_longname>  (300) 
nan

>  <CrystalformSites alias>  (300) 
nan

>  <tags>  (300) 
[]

>  <ref_mols>  (300) 
A1776a

>  <ref_pdb>  (300) 
A1776a

>  <Quatassemblies upload name>  (300) 
nan

>  <inchikey>  (300) 
AQZGQRGEZQQAOT-UHFFFAOYSA-N

>  <Experiment code>  (300) 
nan

>  <Quatassemblies alias>  (300) 
nan

>  <Crystalforms upload name>  (300) 
nan

>  <Centroid res>  (300) 
nan

>  <ConformerSites upload name>  (300) 
nan

>  <energy_score>  (300) 
-1.717836

>  <original SMILES>  (300) 
CC(=O)c1ccc(NC(=O)C=O)cc1

>  <exports>  (300) 
nan

>  <CrystalformSites upload name>  (300) 
nan

>  <name>  (300) 
AQZGQRGEZQQAOT-UHFFFAOYSA-N

>  <HIPPO ID>  (300) 
158734

$$$$
WBJOQROPHCHERE-UHFFFAOYSA-N
     RDKit          3D

 14 14  0  0  0  0  0  0  0  0999 V2000
   12.4184   12.0111   21.9237 C   0  0  0  0  0  0  0  0  0  0  0  0
   11.6885   10.7189   22.2547 C   0  0  0  0  0  0  0  0  0  0  0  0
   11.8824    9.6723   21.6386 O   0  0  0  0  0  0  0  0  0  0  0  0
   10.6543   10.7556   23.3168 C   0  0  0  0  0  0  0  0  0  0  0  0
   10.4825   11.8923   24.1000 C   0  0  0  0  0  0  0  0  0  0  0  0
    9.4266   11.9863   25.0003 C   0  0  0  0  0  0  0  0  0  0  0  0
    8.5186   10.9429   25.1228 C   0  0  0  0  0  0  0  0  0  0  0  0
    7.3536   11.0363   25.9032 N   0  0  0  0  0  0  0  0  0  0  0  0
    7.0374   12.0620   26.7858 C   0  0  0  0  0  0  0  0  0  0  0  0
    7.8484   12.8561   27.2563 O   0  0  0  0  0  0  0  0  0  0  0  0
    5.5462   12.1089   27.0913 C   0  0  0  0  0  0  0  0  0  0  0  0
    5.1902   12.8897   28.6862 S   0  0  0  0  0  0  0  0  0  0  0  0
    8.7186    9.7809   24.3740 C   0  0  0  0  0  0  0  0  0  0  0  0
    9.7890    9.6761   23.4829 C   0  0  0  0  0  0  0  0  0  0  0  0
  1  2  1  0
  2  3  2  0
  2  4  1  0
  4  5  2  0
  5  6  1  0
  6  7  2  0
  7  8  1  0
  8  9  1  0
  9 10  2  0
  9 11  1  0
 11 12  1  0
  7 13  1  0
 13 14  2  0
 14  4  1  0
M  END
>  <Crystalforms alias>  (301) 
nan

>  <original ID>  (301) 
WBJOQROPHCHERE-UHFFFAOYSA-N

>  <alias>  (301) 
None

>  <distance_score>  (301) 
0.547126

>  <CanonSites upload name>  (301) 
nan

>  <CanonSites alias>  (301) 
nan

>  <ConformerSites alias>  (301) 
nan

>  <observation_longname>  (301) 
nan

>  <CrystalformSites alias>  (301) 
nan

>  <tags>  (301) 
[]

>  <ref_mols>  (301) 
A1776a

>  <ref_pdb>  (301) 
A1776a

>  <Quatassemblies upload name>  (301) 
nan

>  <inchikey>  (301) 
WBJOQROPHCHERE-UHFFFAOYSA-N

>  <Experiment code>  (301) 
nan

>  <Quatassemblies alias>  (301) 
nan

>  <Crystalforms upload name>  (301) 
nan

>  <Centroid res>  (301) 
nan

>  <ConformerSites upload name>  (301) 
nan

>  <energy_score>  (301) 
-14.515333

>  <original SMILES>  (301) 
CC(=O)c1ccc(NC(=O)CS)cc1

>  <exports>  (301) 
nan

>  <CrystalformSites upload name>  (301) 
nan

>  <name>  (301) 
WBJOQROPHCHERE-UHFFFAOYSA-N

>  <HIPPO ID>  (301) 
158736

$$$$
DMEWEZIFTMEFDJ-UHFFFAOYSA-N
     RDKit          3D

 15 15  0  0  0  0  0  0  0  0999 V2000
    4.7993   11.0331   27.1597 C   0  0  0  0  0  0  0  0  0  0  0  0
    5.8027   11.8127   27.5818 C   0  0  0  0  0  0  0  0  0  0  0  0
    5.5745   12.7371   29.0305 Cl  0  0  0  0  0  0  0  0  0  0  0  0
    7.1258   11.9836   26.8869 C   0  0  0  0  0  0  0  0  0  0  0  0
    7.8587   12.9236   27.1864 O   0  0  0  0  0  0  0  0  0  0  0  0
    7.4490   10.9714   26.0006 N   0  0  0  0  0  0  0  0  0  0  0  0
    8.5399   10.9539   25.1141 C   0  0  0  0  0  0  0  0  0  0  0  0
    8.8043    9.7673   24.4246 C   0  0  0  0  0  0  0  0  0  0  0  0
    9.8585    9.6877   23.5128 C   0  0  0  0  0  0  0  0  0  0  0  0
   10.6379   10.8149   23.2578 C   0  0  0  0  0  0  0  0  0  0  0  0
   11.6982   10.7575   22.2231 C   0  0  0  0  0  0  0  0  0  0  0  0
   12.4592   12.0329   21.9039 C   0  0  0  0  0  0  0  0  0  0  0  0
   11.9030    9.6990   21.6305 O   0  0  0  0  0  0  0  0  0  0  0  0
   10.3675   11.9991   23.9379 C   0  0  0  0  0  0  0  0  0  0  0  0
    9.3321   12.0677   24.8655 C   0  0  0  0  0  0  0  0  0  0  0  0
  1  2  2  0
  2  3  1  0
  2  4  1  0
  4  5  2  0
  4  6  1  0
  6  7  1  0
  7  8  2  0
  8  9  1  0
  9 10  2  0
 10 11  1  0
 11 12  1  0
 11 13  2  0
 10 14  1  0
 14 15  2  0
 15  7  1  0
M  END
>  <Crystalforms alias>  (302) 
nan

>  <original ID>  (302) 
DMEWEZIFTMEFDJ-UHFFFAOYSA-N

>  <alias>  (302) 
None

>  <distance_score>  (302) 
0.888082

>  <CanonSites upload name>  (302) 
nan

>  <CanonSites alias>  (302) 
nan

>  <ConformerSites alias>  (302) 
nan

>  <observation_longname>  (302) 
nan

>  <CrystalformSites alias>  (302) 
nan

>  <tags>  (302) 
[]

>  <ref_mols>  (302) 
A1776a

>  <ref_pdb>  (302) 
A1776a

>  <Quatassemblies upload name>  (302) 
nan

>  <inchikey>  (302) 
DMEWEZIFTMEFDJ-UHFFFAOYSA-N

>  <Experiment code>  (302) 
nan

>  <Quatassemblies alias>  (302) 
nan

>  <Crystalforms upload name>  (302) 
nan

>  <Centroid res>  (302) 
nan

>  <ConformerSites upload name>  (302) 
nan

>  <energy_score>  (302) 
-13.893384

>  <original SMILES>  (302) 
C=C(Cl)C(=O)Nc1ccc(C(C)=O)cc1

>  <exports>  (302) 
nan

>  <CrystalformSites upload name>  (302) 
nan

>  <name>  (302) 
DMEWEZIFTMEFDJ-UHFFFAOYSA-N

>  <HIPPO ID>  (302) 
158794

$$$$
ORZFTELEAXKDTN-UHFFFAOYSA-N
     RDKit          3D

 15 15  0  0  0  0  0  0  0  0999 V2000
    5.7704   10.4428   29.1303 C   0  0  0  0  0  0  0  0  0  0  0  0
    5.4286   11.7506   28.6923 O   0  0  0  0  0  0  0  0  0  0  0  0
    5.5816   11.9131   27.2888 C   0  0  0  0  0  0  0  0  0  0  0  0
    7.0402   11.9782   26.8181 C   0  0  0  0  0  0  0  0  0  0  0  0
    7.8264   12.8049   27.2770 O   0  0  0  0  0  0  0  0  0  0  0  0
    7.3562   10.9858   25.9044 N   0  0  0  0  0  0  0  0  0  0  0  0
    8.5118   10.9214   25.1096 C   0  0  0  0  0  0  0  0  0  0  0  0
    9.4035   11.9786   24.9872 C   0  0  0  0  0  0  0  0  0  0  0  0
   10.4610   11.8988   24.0864 C   0  0  0  0  0  0  0  0  0  0  0  0
   10.6506   10.7621   23.3060 C   0  0  0  0  0  0  0  0  0  0  0  0
   11.6916   10.7301   22.2508 C   0  0  0  0  0  0  0  0  0  0  0  0
   12.4206   12.0235   21.9264 C   0  0  0  0  0  0  0  0  0  0  0  0
   11.8939    9.6836   21.6368 O   0  0  0  0  0  0  0  0  0  0  0  0
    9.7980    9.6725   23.4692 C   0  0  0  0  0  0  0  0  0  0  0  0
    8.7258    9.7637   24.3581 C   0  0  0  0  0  0  0  0  0  0  0  0
  1  2  1  0
  2  3  1  0
  3  4  1  0
  4  5  2  0
  4  6  1  0
  6  7  1  0
  7  8  2  0
  8  9  1  0
  9 10  2  0
 10 11  1  0
 11 12  1  0
 11 13  2  0
 10 14  1  0
 14 15  2  0
 15  7  1  0
M  END
>  <Crystalforms alias>  (303) 
nan

>  <original ID>  (303) 
ORZFTELEAXKDTN-UHFFFAOYSA-N

>  <alias>  (303) 
None

>  <distance_score>  (303) 
0.548855

>  <CanonSites upload name>  (303) 
nan

>  <CanonSites alias>  (303) 
nan

>  <ConformerSites alias>  (303) 
nan

>  <observation_longname>  (303) 
nan

>  <CrystalformSites alias>  (303) 
nan

>  <tags>  (303) 
[]

>  <ref_mols>  (303) 
A1776a

>  <ref_pdb>  (303) 
A1776a

>  <Quatassemblies upload name>  (303) 
nan

>  <inchikey>  (303) 
ORZFTELEAXKDTN-UHFFFAOYSA-N

>  <Experiment code>  (303) 
nan

>  <Quatassemblies alias>  (303) 
nan

>  <Crystalforms upload name>  (303) 
nan

>  <Centroid res>  (303) 
nan

>  <ConformerSites upload name>  (303) 
nan

>  <energy_score>  (303) 
-15.076046

>  <original SMILES>  (303) 
COCC(=O)Nc1ccc(C(C)=O)cc1

>  <exports>  (303) 
nan

>  <CrystalformSites upload name>  (303) 
nan

>  <name>  (303) 
ORZFTELEAXKDTN-UHFFFAOYSA-N

>  <HIPPO ID>  (303) 
158838

$$$$
WPFBRJWFVGBZJI-UHFFFAOYSA-N
     RDKit          3D

 15 15  0  0  0  0  0  0  0  0999 V2000
   12.4420   12.0276   21.9072 C   0  0  0  0  0  0  0  0  0  0  0  0
   11.7135   10.7345   22.2333 C   0  0  0  0  0  0  0  0  0  0  0  0
   11.9166    9.6879   21.6199 O   0  0  0  0  0  0  0  0  0  0  0  0
   10.6747   10.7657   23.2902 C   0  0  0  0  0  0  0  0  0  0  0  0
   10.4827   11.9039   24.0686 C   0  0  0  0  0  0  0  0  0  0  0  0
    9.4267   11.9829   24.9710 C   0  0  0  0  0  0  0  0  0  0  0  0
    8.5394   10.9227   25.0940 C   0  0  0  0  0  0  0  0  0  0  0  0
    7.3757   10.9875   25.8767 N   0  0  0  0  0  0  0  0  0  0  0  0
    7.0526   11.9694   26.7975 C   0  0  0  0  0  0  0  0  0  0  0  0
    7.8428   12.7880   27.2699 O   0  0  0  0  0  0  0  0  0  0  0  0
    5.5925   12.0276   27.1851 C   0  0  0  0  0  0  0  0  0  0  0  0
    5.0285   10.7025   27.4181 C   0  0  0  0  0  0  0  0  0  0  0  0
    4.5822    9.6411   27.5554 N   0  0  0  0  0  0  0  0  0  0  0  0
    8.7562    9.7629   24.3457 C   0  0  0  0  0  0  0  0  0  0  0  0
    9.8272    9.6731   23.4567 C   0  0  0  0  0  0  0  0  0  0  0  0
  1  2  1  0
  2  3  2  0
  2  4  1  0
  4  5  2  0
  5  6  1  0
  6  7  2  0
  7  8  1  0
  8  9  1  0
  9 10  2  0
  9 11  1  0
 11 12  1  0
 12 13  3  0
  7 14  1  0
 14 15  2  0
 15  4  1  0
M  END
>  <Crystalforms alias>  (304) 
nan

>  <original ID>  (304) 
WPFBRJWFVGBZJI-UHFFFAOYSA-N

>  <alias>  (304) 
None

>  <distance_score>  (304) 
0.876049

>  <CanonSites upload name>  (304) 
nan

>  <CanonSites alias>  (304) 
nan

>  <ConformerSites alias>  (304) 
nan

>  <observation_longname>  (304) 
nan

>  <CrystalformSites alias>  (304) 
nan

>  <tags>  (304) 
[]

>  <ref_mols>  (304) 
A1776a

>  <ref_pdb>  (304) 
A1776a

>  <Quatassemblies upload name>  (304) 
nan

>  <inchikey>  (304) 
WPFBRJWFVGBZJI-UHFFFAOYSA-N

>  <Experiment code>  (304) 
nan

>  <Quatassemblies alias>  (304) 
nan

>  <Crystalforms upload name>  (304) 
nan

>  <Centroid res>  (304) 
nan

>  <ConformerSites upload name>  (304) 
nan

>  <energy_score>  (304) 
-12.998034

>  <original SMILES>  (304) 
CC(=O)c1ccc(NC(=O)CC#N)cc1

>  <exports>  (304) 
nan

>  <CrystalformSites upload name>  (304) 
nan

>  <name>  (304) 
WPFBRJWFVGBZJI-UHFFFAOYSA-N

>  <HIPPO ID>  (304) 
158983

$$$$
JHXKPLUKDRXVIJ-UHFFFAOYSA-N
     RDKit          3D

 15 15  0  0  0  0  0  0  0  0999 V2000
   12.4818   12.0391   21.8829 C   0  0  0  0  0  0  0  0  0  0  0  0
   11.7365   10.7538   22.1981 C   0  0  0  0  0  0  0  0  0  0  0  0
   11.9455    9.7030   21.5935 O   0  0  0  0  0  0  0  0  0  0  0  0
   10.6826   10.7913   23.2386 C   0  0  0  0  0  0  0  0  0  0  0  0
   10.4228   11.9579   23.9526 C   0  0  0  0  0  0  0  0  0  0  0  0
    9.3771   12.0139   24.8688 C   0  0  0  0  0  0  0  0  0  0  0  0
    8.5657   10.9045   25.0672 C   0  0  0  0  0  0  0  0  0  0  0  0
    7.4457   10.9136   25.9088 N   0  0  0  0  0  0  0  0  0  0  0  0
    7.0568   11.9138   26.7851 C   0  0  0  0  0  0  0  0  0  0  0  0
    7.7580   12.8798   27.0945 O   0  0  0  0  0  0  0  0  0  0  0  0
    5.6583   11.7406   27.3839 C   0  0  0  0  0  0  0  0  0  0  0  0
    4.9270   10.1675   26.9815 Cl  0  0  0  0  0  0  0  0  0  0  0  0
    5.7743   11.8703   29.1560 Cl  0  0  0  0  0  0  0  0  0  0  0  0
    8.8335    9.7296   24.3606 C   0  0  0  0  0  0  0  0  0  0  0  0
    9.8961    9.6629   23.4606 C   0  0  0  0  0  0  0  0  0  0  0  0
  1  2  1  0
  2  3  2  0
  2  4  1  0
  4  5  2  0
  5  6  1  0
  6  7  2  0
  7  8  1  0
  8  9  1  0
  9 10  2  0
  9 11  1  0
 11 12  1  0
 11 13  1  0
  7 14  1  0
 14 15  2  0
 15  4  1  0
M  END
>  <Crystalforms alias>  (305) 
nan

>  <original ID>  (305) 
JHXKPLUKDRXVIJ-UHFFFAOYSA-N

>  <alias>  (305) 
None

>  <distance_score>  (305) 
0.537352

>  <CanonSites upload name>  (305) 
nan

>  <CanonSites alias>  (305) 
nan

>  <ConformerSites alias>  (305) 
nan

>  <observation_longname>  (305) 
nan

>  <CrystalformSites alias>  (305) 
nan

>  <tags>  (305) 
[]

>  <ref_mols>  (305) 
A1776a

>  <ref_pdb>  (305) 
A1776a

>  <Quatassemblies upload name>  (305) 
nan

>  <inchikey>  (305) 
JHXKPLUKDRXVIJ-UHFFFAOYSA-N

>  <Experiment code>  (305) 
nan

>  <Quatassemblies alias>  (305) 
nan

>  <Crystalforms upload name>  (305) 
nan

>  <Centroid res>  (305) 
nan

>  <ConformerSites upload name>  (305) 
nan

>  <energy_score>  (305) 
-15.187035

>  <original SMILES>  (305) 
CC(=O)c1ccc(NC(=O)C(Cl)Cl)cc1

>  <exports>  (305) 
nan

>  <CrystalformSites upload name>  (305) 
nan

>  <name>  (305) 
JHXKPLUKDRXVIJ-UHFFFAOYSA-N

>  <HIPPO ID>  (305) 
159004

$$$$
VCGFBWGRSORBBA-MNOVXSKESA-N
     RDKit          3D

 16 17  0  0  0  0  0  0  0  0999 V2000
   12.4186   12.0217   21.9330 C   0  0  0  0  0  0  0  0  0  0  0  0
   11.6546   10.7492   22.2595 C   0  0  0  0  0  0  0  0  0  0  0  0
   11.8525    9.6887   21.6682 O   0  0  0  0  0  0  0  0  0  0  0  0
   10.5980   10.8167   23.2994 C   0  0  0  0  0  0  0  0  0  0  0  0
   10.3628   11.9969   23.9995 C   0  0  0  0  0  0  0  0  0  0  0  0
    9.3353   12.0817   24.9351 C   0  0  0  0  0  0  0  0  0  0  0  0
    8.5127   10.9885   25.1718 C   0  0  0  0  0  0  0  0  0  0  0  0
    7.4402   11.0231   26.0793 N   0  0  0  0  0  0  0  0  0  0  0  0
    7.1661   12.0219   26.9901 C   0  0  0  0  0  0  0  0  0  0  0  0
    7.8758   12.9724   27.2895 O   0  0  0  0  0  0  0  0  0  0  0  0
    5.9232   11.8216   27.7729 C   0  0  2  0  0  0  0  0  0  0  0  0
    4.6797   11.1677   27.2323 C   0  0  0  0  0  0  0  0  0  0  0  0
    4.7199   12.6483   27.4238 C   0  0  2  0  0  0  0  0  0  0  0  0
    4.7605   13.4318   26.2868 F   0  0  0  0  0  0  0  0  0  0  0  0
    8.7386    9.8061   24.4609 C   0  0  0  0  0  0  0  0  0  0  0  0
    9.7872    9.7091   23.5420 C   0  0  0  0  0  0  0  0  0  0  0  0
  1  2  1  0
  2  3  2  0
  2  4  1  0
  4  5  2  0
  5  6  1  0
  6  7  2  0
  7  8  1  0
  8  9  1  0
  9 10  2  0
 11  9  1  6
 11 12  1  0
 12 13  1  0
 13 14  1  6
  7 15  1  0
 15 16  2  0
 16  4  1  0
 13 11  1  0
M  END
>  <Crystalforms alias>  (306) 
nan

>  <original ID>  (306) 
VCGFBWGRSORBBA-MNOVXSKESA-N

>  <alias>  (306) 
None

>  <distance_score>  (306) 
0.604332

>  <CanonSites upload name>  (306) 
nan

>  <CanonSites alias>  (306) 
nan

>  <ConformerSites alias>  (306) 
nan

>  <observation_longname>  (306) 
nan

>  <CrystalformSites alias>  (306) 
nan

>  <tags>  (306) 
[]

>  <ref_mols>  (306) 
A1776a

>  <ref_pdb>  (306) 
A1776a

>  <Quatassemblies upload name>  (306) 
nan

>  <inchikey>  (306) 
VCGFBWGRSORBBA-MNOVXSKESA-N

>  <Experiment code>  (306) 
nan

>  <Quatassemblies alias>  (306) 
nan

>  <Crystalforms upload name>  (306) 
nan

>  <Centroid res>  (306) 
nan

>  <ConformerSites upload name>  (306) 
nan

>  <energy_score>  (306) 
-19.080966

>  <original SMILES>  (306) 
CC(=O)c1ccc(NC(=O)[C@@H]2C[C@@H]2F)cc1

>  <exports>  (306) 
nan

>  <CrystalformSites upload name>  (306) 
nan

>  <name>  (306) 
VCGFBWGRSORBBA-MNOVXSKESA-N

>  <HIPPO ID>  (306) 
159195

$$$$
VCGFBWGRSORBBA-QWRGUYRKSA-N
     RDKit          3D

 16 17  0  0  0  0  0  0  0  0999 V2000
   12.4554   12.0432   21.9093 C   0  0  0  0  0  0  0  0  0  0  0  0
   11.6994   10.7640   22.2219 C   0  0  0  0  0  0  0  0  0  0  0  0
   11.9086    9.7095   21.6237 O   0  0  0  0  0  0  0  0  0  0  0  0
   10.6403   10.8119   23.2581 C   0  0  0  0  0  0  0  0  0  0  0  0
    9.8723    9.6766   23.5094 C   0  0  0  0  0  0  0  0  0  0  0  0
    8.8251    9.7408   24.4289 C   0  0  0  0  0  0  0  0  0  0  0  0
    8.5559   10.9194   25.1302 C   0  0  0  0  0  0  0  0  0  0  0  0
    7.4825   10.9107   26.0359 N   0  0  0  0  0  0  0  0  0  0  0  0
    7.1364   11.9160   26.9131 C   0  0  0  0  0  0  0  0  0  0  0  0
    7.7902   12.9132   27.1871 O   0  0  0  0  0  0  0  0  0  0  0  0
    5.8672   11.6975   27.6493 C   0  0  1  0  0  0  0  0  0  0  0  0
    4.6013   12.3188   27.0928 C   0  0  0  0  0  0  0  0  0  0  0  0
    4.7512   10.8353   27.1558 C   0  0  2  0  0  0  0  0  0  0  0  0
    3.9926   10.1726   28.1019 F   0  0  0  0  0  0  0  0  0  0  0  0
    9.3329   12.0438   24.8823 C   0  0  0  0  0  0  0  0  0  0  0  0
   10.3620   11.9905   23.9459 C   0  0  0  0  0  0  0  0  0  0  0  0
  1  2  1  0
  2  3  2  0
  2  4  1  0
  4  5  2  0
  5  6  1  0
  6  7  2  0
  7  8  1  0
  8  9  1  0
  9 10  2  0
 11  9  1  6
 11 12  1  0
 12 13  1  0
 13 14  1  1
  7 15  1  0
 15 16  2  0
 16  4  1  0
 13 11  1  0
M  END
>  <Crystalforms alias>  (307) 
nan

>  <original ID>  (307) 
VCGFBWGRSORBBA-QWRGUYRKSA-N

>  <alias>  (307) 
None

>  <distance_score>  (307) 
0.578537

>  <CanonSites upload name>  (307) 
nan

>  <CanonSites alias>  (307) 
nan

>  <ConformerSites alias>  (307) 
nan

>  <observation_longname>  (307) 
nan

>  <CrystalformSites alias>  (307) 
nan

>  <tags>  (307) 
[]

>  <ref_mols>  (307) 
A1776a

>  <ref_pdb>  (307) 
A1776a

>  <Quatassemblies upload name>  (307) 
nan

>  <inchikey>  (307) 
VCGFBWGRSORBBA-QWRGUYRKSA-N

>  <Experiment code>  (307) 
nan

>  <Quatassemblies alias>  (307) 
nan

>  <Crystalforms upload name>  (307) 
nan

>  <Centroid res>  (307) 
nan

>  <ConformerSites upload name>  (307) 
nan

>  <energy_score>  (307) 
-12.839646

>  <original SMILES>  (307) 
CC(=O)c1ccc(NC(=O)[C@H]2C[C@@H]2F)cc1

>  <exports>  (307) 
nan

>  <CrystalformSites upload name>  (307) 
nan

>  <name>  (307) 
VCGFBWGRSORBBA-QWRGUYRKSA-N

>  <HIPPO ID>  (307) 
159196

$$$$
VCGFBWGRSORBBA-GHMZBOCLSA-N
     RDKit          3D

 16 17  0  0  0  0  0  0  0  0999 V2000
   12.4019   12.0140   21.9386 C   0  0  0  0  0  0  0  0  0  0  0  0
   11.6727   10.7213   22.2680 C   0  0  0  0  0  0  0  0  0  0  0  0
   11.8688    9.6750   21.6521 O   0  0  0  0  0  0  0  0  0  0  0  0
   10.6365   10.7580   23.3286 C   0  0  0  0  0  0  0  0  0  0  0  0
   10.4722   11.8889   24.1227 C   0  0  0  0  0  0  0  0  0  0  0  0
    9.4180   11.9816   25.0260 C   0  0  0  0  0  0  0  0  0  0  0  0
    8.5040   10.9427   25.1395 C   0  0  0  0  0  0  0  0  0  0  0  0
    7.3545   11.0254   25.9411 N   0  0  0  0  0  0  0  0  0  0  0  0
    7.0606   12.0166   26.8501 C   0  0  0  0  0  0  0  0  0  0  0  0
    7.8248   12.8555   27.3069 O   0  0  0  0  0  0  0  0  0  0  0  0
    5.6608   11.9541   27.3314 C   0  0  2  0  0  0  0  0  0  0  0  0
    5.2542   12.6009   28.6380 C   0  0  0  0  0  0  0  0  0  0  0  0
    5.3572   11.1158   28.5357 C   0  0  1  0  0  0  0  0  0  0  0  0
    4.1777   10.3961   28.5141 F   0  0  0  0  0  0  0  0  0  0  0  0
    8.6938    9.7881   24.3769 C   0  0  0  0  0  0  0  0  0  0  0  0
    9.7629    9.6838   23.4841 C   0  0  0  0  0  0  0  0  0  0  0  0
  1  2  1  0
  2  3  2  0
  2  4  1  0
  4  5  2  0
  5  6  1  0
  6  7  2  0
  7  8  1  0
  8  9  1  0
  9 10  2  0
 11  9  1  1
 11 12  1  0
 12 13  1  0
 13 14  1  6
  7 15  1  0
 15 16  2  0
 16  4  1  0
 13 11  1  0
M  END
>  <Crystalforms alias>  (308) 
nan

>  <original ID>  (308) 
VCGFBWGRSORBBA-GHMZBOCLSA-N

>  <alias>  (308) 
None

>  <distance_score>  (308) 
0.795626

>  <CanonSites upload name>  (308) 
nan

>  <CanonSites alias>  (308) 
nan

>  <ConformerSites alias>  (308) 
nan

>  <observation_longname>  (308) 
nan

>  <CrystalformSites alias>  (308) 
nan

>  <tags>  (308) 
[]

>  <ref_mols>  (308) 
A1776a

>  <ref_pdb>  (308) 
A1776a

>  <Quatassemblies upload name>  (308) 
nan

>  <inchikey>  (308) 
VCGFBWGRSORBBA-GHMZBOCLSA-N

>  <Experiment code>  (308) 
nan

>  <Quatassemblies alias>  (308) 
nan

>  <Crystalforms upload name>  (308) 
nan

>  <Centroid res>  (308) 
nan

>  <ConformerSites upload name>  (308) 
nan

>  <energy_score>  (308) 
-17.932337

>  <original SMILES>  (308) 
CC(=O)c1ccc(NC(=O)[C@@H]2C[C@H]2F)cc1

>  <exports>  (308) 
nan

>  <CrystalformSites upload name>  (308) 
nan

>  <name>  (308) 
VCGFBWGRSORBBA-GHMZBOCLSA-N

>  <HIPPO ID>  (308) 
159197

$$$$
VCGFBWGRSORBBA-WDEREUQCSA-N
     RDKit          3D

 16 17  0  0  0  0  0  0  0  0999 V2000
   12.3860   11.9969   21.9436 C   0  0  0  0  0  0  0  0  0  0  0  0
   11.6432   10.7136   22.2840 C   0  0  0  0  0  0  0  0  0  0  0  0
   11.8327    9.6590   21.6806 O   0  0  0  0  0  0  0  0  0  0  0  0
   10.6063   10.7721   23.3442 C   0  0  0  0  0  0  0  0  0  0  0  0
   10.4668   11.9104   24.1313 C   0  0  0  0  0  0  0  0  0  0  0  0
    9.4289   12.0240   25.0504 C   0  0  0  0  0  0  0  0  0  0  0  0
    8.5036   10.9995   25.1916 C   0  0  0  0  0  0  0  0  0  0  0  0
    7.3919   11.0903   26.0460 N   0  0  0  0  0  0  0  0  0  0  0  0
    7.1413   12.0776   26.9737 C   0  0  0  0  0  0  0  0  0  0  0  0
    7.9060   12.9636   27.3322 O   0  0  0  0  0  0  0  0  0  0  0  0
    5.8243   12.0060   27.6572 C   0  0  1  0  0  0  0  0  0  0  0  0
    4.6129   12.5939   26.9637 C   0  0  0  0  0  0  0  0  0  0  0  0
    4.6930   11.1277   27.2359 C   0  0  1  0  0  0  0  0  0  0  0  0
    4.8946   10.2752   26.1691 F   0  0  0  0  0  0  0  0  0  0  0  0
    8.6583    9.8417   24.4243 C   0  0  0  0  0  0  0  0  0  0  0  0
    9.7136    9.7156   23.5146 C   0  0  0  0  0  0  0  0  0  0  0  0
  1  2  1  0
  2  3  2  0
  2  4  1  0
  4  5  2  0
  5  6  1  0
  6  7  2  0
  7  8  1  0
  8  9  1  0
  9 10  2  0
 11  9  1  6
 11 12  1  0
 12 13  1  0
 13 14  1  6
  7 15  1  0
 15 16  2  0
 16  4  1  0
 13 11  1  0
M  END
>  <Crystalforms alias>  (309) 
nan

>  <original ID>  (309) 
VCGFBWGRSORBBA-WDEREUQCSA-N

>  <alias>  (309) 
None

>  <distance_score>  (309) 
0.58936

>  <CanonSites upload name>  (309) 
nan

>  <CanonSites alias>  (309) 
nan

>  <ConformerSites alias>  (309) 
nan

>  <observation_longname>  (309) 
nan

>  <CrystalformSites alias>  (309) 
nan

>  <tags>  (309) 
[]

>  <ref_mols>  (309) 
A1776a

>  <ref_pdb>  (309) 
A1776a

>  <Quatassemblies upload name>  (309) 
nan

>  <inchikey>  (309) 
VCGFBWGRSORBBA-WDEREUQCSA-N

>  <Experiment code>  (309) 
nan

>  <Quatassemblies alias>  (309) 
nan

>  <Crystalforms upload name>  (309) 
nan

>  <Centroid res>  (309) 
nan

>  <ConformerSites upload name>  (309) 
nan

>  <energy_score>  (309) 
-21.007564

>  <original SMILES>  (309) 
CC(=O)c1ccc(NC(=O)[C@H]2C[C@H]2F)cc1

>  <exports>  (309) 
nan

>  <CrystalformSites upload name>  (309) 
nan

>  <name>  (309) 
VCGFBWGRSORBBA-WDEREUQCSA-N

>  <HIPPO ID>  (309) 
159198

$$$$
SKLUWKYNZNXSLX-UHFFFAOYSA-N
     RDKit          3D

 12 12  0  0  0  0  0  0  0  0999 V2000
    5.7801   12.0703   27.3831 C   0  0  0  0  0  0  0  0  0  0  0  0
    7.1783   12.1199   26.8213 C   0  0  0  0  0  0  0  0  0  0  0  0
    7.9844   12.9583   27.2134 O   0  0  0  0  0  0  0  0  0  0  0  0
    7.4253   11.1007   25.9258 N   0  0  0  0  0  0  0  0  0  0  0  0
    8.5495   10.9489   25.0965 C   0  0  0  0  0  0  0  0  0  0  0  0
    8.6658    9.7427   24.4010 C   0  0  0  0  0  0  0  0  0  0  0  0
    9.7036    9.5297   23.4974 C   0  0  0  0  0  0  0  0  0  0  0  0
   10.6186   10.5498   23.2656 C   0  0  0  0  0  0  0  0  0  0  0  0
   11.6363   10.4007   22.2181 C   0  0  0  0  0  0  0  0  0  0  0  0
   11.7732    9.3558   21.5966 O   0  0  0  0  0  0  0  0  0  0  0  0
   10.5336   11.7490   23.9693 C   0  0  0  0  0  0  0  0  0  0  0  0
    9.5036   11.9432   24.8930 C   0  0  0  0  0  0  0  0  0  0  0  0
  1  2  1  0
  2  3  2  0
  2  4  1  0
  4  5  1  0
  5  6  2  0
  6  7  1  0
  7  8  2  0
  8  9  1  0
  9 10  2  0
  8 11  1  0
 11 12  2  0
 12  5  1  0
M  END
>  <Crystalforms alias>  (310) 
nan

>  <original ID>  (310) 
SKLUWKYNZNXSLX-UHFFFAOYSA-N

>  <alias>  (310) 
None

>  <distance_score>  (310) 
0.427469

>  <CanonSites upload name>  (310) 
nan

>  <CanonSites alias>  (310) 
nan

>  <ConformerSites alias>  (310) 
nan

>  <observation_longname>  (310) 
nan

>  <CrystalformSites alias>  (310) 
nan

>  <tags>  (310) 
['Syndirella scaffold']

>  <ref_mols>  (310) 
A1776a

>  <ref_pdb>  (310) 
A1776a

>  <Quatassemblies upload name>  (310) 
nan

>  <inchikey>  (310) 
SKLUWKYNZNXSLX-UHFFFAOYSA-N

>  <Experiment code>  (310) 
nan

>  <Quatassemblies alias>  (310) 
nan

>  <Crystalforms upload name>  (310) 
nan

>  <Centroid res>  (310) 
nan

>  <ConformerSites upload name>  (310) 
nan

>  <energy_score>  (310) 
-11.524796

>  <original SMILES>  (310) 
CC(=O)Nc1ccc(C=O)cc1

>  <exports>  (310) 
nan

>  <CrystalformSites upload name>  (310) 
nan

>  <name>  (310) 
SKLUWKYNZNXSLX-UHFFFAOYSA-N

>  <HIPPO ID>  (310) 
167343

$$$$
HNFDWHVXJHQJBI-UHFFFAOYSA-N
     RDKit          3D

 13 13  0  0  0  0  0  0  0  0999 V2000
   11.7834    9.3633   21.5895 O   0  0  0  0  0  0  0  0  0  0  0  0
   11.6457   10.4018   22.2215 C   0  0  0  0  0  0  0  0  0  0  0  0
   10.6296   10.5388   23.2722 C   0  0  0  0  0  0  0  0  0  0  0  0
   10.5568   11.7218   24.0055 C   0  0  0  0  0  0  0  0  0  0  0  0
    9.5161   11.9135   24.9179 C   0  0  0  0  0  0  0  0  0  0  0  0
    8.5378   10.9347   25.0726 C   0  0  0  0  0  0  0  0  0  0  0  0
    7.3880   11.0988   25.8550 N   0  0  0  0  0  0  0  0  0  0  0  0
    7.1031   12.1077   26.7517 C   0  0  0  0  0  0  0  0  0  0  0  0
    7.8895   12.9369   27.1989 O   0  0  0  0  0  0  0  0  0  0  0  0
    5.6314   12.0706   27.1802 C   0  0  0  0  0  0  0  0  0  0  0  0
    5.0299   10.7871   27.0279 O   0  0  0  0  0  0  0  0  0  0  0  0
    8.6500    9.7391   24.3604 C   0  0  0  0  0  0  0  0  0  0  0  0
    9.6994    9.5263   23.4720 C   0  0  0  0  0  0  0  0  0  0  0  0
  1  2  2  0
  2  3  1  0
  3  4  2  0
  4  5  1  0
  5  6  2  0
  6  7  1  0
  7  8  1  0
  8  9  2  0
  8 10  1  0
 10 11  1  0
  6 12  1  0
 12 13  2  0
 13  3  1  0
M  END
>  <Crystalforms alias>  (311) 
nan

>  <original ID>  (311) 
HNFDWHVXJHQJBI-UHFFFAOYSA-N

>  <alias>  (311) 
None

>  <distance_score>  (311) 
0.414513

>  <CanonSites upload name>  (311) 
nan

>  <CanonSites alias>  (311) 
nan

>  <ConformerSites alias>  (311) 
nan

>  <observation_longname>  (311) 
nan

>  <CrystalformSites alias>  (311) 
nan

>  <tags>  (311) 
[]

>  <ref_mols>  (311) 
A1776a

>  <ref_pdb>  (311) 
A1776a

>  <Quatassemblies upload name>  (311) 
nan

>  <inchikey>  (311) 
HNFDWHVXJHQJBI-UHFFFAOYSA-N

>  <Experiment code>  (311) 
nan

>  <Quatassemblies alias>  (311) 
nan

>  <Crystalforms upload name>  (311) 
nan

>  <Centroid res>  (311) 
nan

>  <ConformerSites upload name>  (311) 
nan

>  <energy_score>  (311) 
-12.384331

>  <original SMILES>  (311) 
O=Cc1ccc(NC(=O)CO)cc1

>  <exports>  (311) 
nan

>  <CrystalformSites upload name>  (311) 
nan

>  <name>  (311) 
HNFDWHVXJHQJBI-UHFFFAOYSA-N

>  <HIPPO ID>  (311) 
167350

$$$$
WECHHDJTILFYQT-UHFFFAOYSA-N
     RDKit          3D

 13 13  0  0  0  0  0  0  0  0999 V2000
    5.6241   11.8077   27.3948 C   0  0  0  0  0  0  0  0  0  0  0  0
    7.0272   11.9448   26.8634 C   0  0  0  0  0  0  0  0  0  0  0  0
    7.7689   12.8313   27.2784 O   0  0  0  0  0  0  0  0  0  0  0  0
    7.3573   10.9558   25.9580 N   0  0  0  0  0  0  0  0  0  0  0  0
    8.4935   10.9183   25.1333 C   0  0  0  0  0  0  0  0  0  0  0  0
    8.7287    9.7548   24.3965 C   0  0  0  0  0  0  0  0  0  0  0  0
    9.7961    9.6734   23.5005 C   0  0  0  0  0  0  0  0  0  0  0  0
   10.6226   10.7789   23.3123 C   0  0  0  0  0  0  0  0  0  0  0  0
   11.6709   10.7425   22.2636 C   0  0  0  0  0  0  0  0  0  0  0  0
   12.4074   12.0320   21.9440 C   0  0  0  0  0  0  0  0  0  0  0  0
   11.8772    9.6942   21.6536 O   0  0  0  0  0  0  0  0  0  0  0  0
   10.4028   11.9294   24.0656 C   0  0  0  0  0  0  0  0  0  0  0  0
    9.3514   11.9989   24.9760 C   0  0  0  0  0  0  0  0  0  0  0  0
  1  2  1  0
  2  3  2  0
  2  4  1  0
  4  5  1  0
  5  6  2  0
  6  7  1  0
  7  8  2  0
  8  9  1  0
  9 10  1  0
  9 11  2  0
  8 12  1  0
 12 13  2  0
 13  5  1  0
M  END
>  <Crystalforms alias>  (312) 
nan

>  <original ID>  (312) 
WECHHDJTILFYQT-UHFFFAOYSA-N

>  <alias>  (312) 
None

>  <distance_score>  (312) 
0.903008

>  <CanonSites upload name>  (312) 
nan

>  <CanonSites alias>  (312) 
nan

>  <ConformerSites alias>  (312) 
nan

>  <observation_longname>  (312) 
nan

>  <CrystalformSites alias>  (312) 
nan

>  <tags>  (312) 
[]

>  <ref_mols>  (312) 
A1776a

>  <ref_pdb>  (312) 
A1776a

>  <Quatassemblies upload name>  (312) 
nan

>  <inchikey>  (312) 
WECHHDJTILFYQT-UHFFFAOYSA-N

>  <Experiment code>  (312) 
nan

>  <Quatassemblies alias>  (312) 
nan

>  <Crystalforms upload name>  (312) 
nan

>  <Centroid res>  (312) 
nan

>  <ConformerSites upload name>  (312) 
nan

>  <energy_score>  (312) 
-8.78651

>  <original SMILES>  (312) 
CC(=O)Nc1ccc(C(C)=O)cc1

>  <exports>  (312) 
nan

>  <CrystalformSites upload name>  (312) 
nan

>  <name>  (312) 
WECHHDJTILFYQT-UHFFFAOYSA-N

>  <HIPPO ID>  (312) 
167354

$$$$
XVVYSVVBPMJRAB-UHFFFAOYSA-N
     RDKit          3D

 13 13  0  0  0  0  0  0  0  0999 V2000
    5.7433   12.0169   27.3872 C   0  0  0  0  0  0  0  0  0  0  0  0
    7.1417   12.0881   26.8284 C   0  0  0  0  0  0  0  0  0  0  0  0
    7.9345   12.9350   27.2288 O   0  0  0  0  0  0  0  0  0  0  0  0
    7.4029   11.0819   25.9221 N   0  0  0  0  0  0  0  0  0  0  0  0
    8.5319   10.9520   25.0959 C   0  0  0  0  0  0  0  0  0  0  0  0
    8.6571    9.7642   24.3727 C   0  0  0  0  0  0  0  0  0  0  0  0
    9.7023    9.5771   23.4700 C   0  0  0  0  0  0  0  0  0  0  0  0
   10.6234   10.6005   23.2622 C   0  0  0  0  0  0  0  0  0  0  0  0
   11.6665   10.4173   22.2302 C   0  0  0  0  0  0  0  0  0  0  0  0
   12.3472   11.5348   21.8168 N   0  0  0  0  0  0  0  0  0  0  0  0
   11.8696    9.3323   21.7040 O   0  0  0  0  0  0  0  0  0  0  0  0
   10.5299   11.7735   24.0122 C   0  0  0  0  0  0  0  0  0  0  0  0
    9.4890   11.9477   24.9279 C   0  0  0  0  0  0  0  0  0  0  0  0
  1  2  1  0
  2  3  2  0
  2  4  1  0
  4  5  1  0
  5  6  2  0
  6  7  1  0
  7  8  2  0
  8  9  1  0
  9 10  1  0
  9 11  2  0
  8 12  1  0
 12 13  2  0
 13  5  1  0
M  END
>  <Crystalforms alias>  (313) 
nan

>  <original ID>  (313) 
XVVYSVVBPMJRAB-UHFFFAOYSA-N

>  <alias>  (313) 
None

>  <distance_score>  (313) 
0.494867

>  <CanonSites upload name>  (313) 
nan

>  <CanonSites alias>  (313) 
nan

>  <ConformerSites alias>  (313) 
nan

>  <observation_longname>  (313) 
nan

>  <CrystalformSites alias>  (313) 
nan

>  <tags>  (313) 
[]

>  <ref_mols>  (313) 
A1776a

>  <ref_pdb>  (313) 
A1776a

>  <Quatassemblies upload name>  (313) 
nan

>  <inchikey>  (313) 
XVVYSVVBPMJRAB-UHFFFAOYSA-N

>  <Experiment code>  (313) 
nan

>  <Quatassemblies alias>  (313) 
nan

>  <Crystalforms upload name>  (313) 
nan

>  <Centroid res>  (313) 
nan

>  <ConformerSites upload name>  (313) 
nan

>  <energy_score>  (313) 
-19.777428

>  <original SMILES>  (313) 
CC(=O)Nc1ccc(C(N)=O)cc1

>  <exports>  (313) 
nan

>  <CrystalformSites upload name>  (313) 
nan

>  <name>  (313) 
XVVYSVVBPMJRAB-UHFFFAOYSA-N

>  <HIPPO ID>  (313) 
167355

$$$$
HOQXRQQAQAEPFI-UHFFFAOYSA-N
     RDKit          3D

 13 13  0  0  0  0  0  0  0  0999 V2000
   11.8068    9.3620   21.5712 O   0  0  0  0  0  0  0  0  0  0  0  0
   11.6655   10.4055   22.1939 C   0  0  0  0  0  0  0  0  0  0  0  0
   10.6488   10.5462   23.2425 C   0  0  0  0  0  0  0  0  0  0  0  0
    9.7478    9.5147   23.4771 C   0  0  0  0  0  0  0  0  0  0  0  0
    8.7065    9.7187   24.3765 C   0  0  0  0  0  0  0  0  0  0  0  0
    8.5724   10.9280   25.0625 C   0  0  0  0  0  0  0  0  0  0  0  0
    7.4355   11.0729   25.8686 N   0  0  0  0  0  0  0  0  0  0  0  0
    7.1381   12.0918   26.7498 C   0  0  0  0  0  0  0  0  0  0  0  0
    7.9262   12.9511   27.1421 O   0  0  0  0  0  0  0  0  0  0  0  0
    5.6873   12.1100   27.2007 C   0  0  0  0  0  0  0  0  0  0  0  0
    5.0168   10.4644   27.3323 Cl  0  0  0  0  0  0  0  0  0  0  0  0
    9.5145   11.9335   24.8615 C   0  0  0  0  0  0  0  0  0  0  0  0
   10.5491   11.7473   23.9419 C   0  0  0  0  0  0  0  0  0  0  0  0
  1  2  2  0
  2  3  1  0
  3  4  2  0
  4  5  1  0
  5  6  2  0
  6  7  1  0
  7  8  1  0
  8  9  2  0
  8 10  1  0
 10 11  1  0
  6 12  1  0
 12 13  2  0
 13  3  1  0
M  END
>  <Crystalforms alias>  (314) 
nan

>  <original ID>  (314) 
HOQXRQQAQAEPFI-UHFFFAOYSA-N

>  <alias>  (314) 
None

>  <distance_score>  (314) 
0.404792

>  <CanonSites upload name>  (314) 
nan

>  <CanonSites alias>  (314) 
nan

>  <ConformerSites alias>  (314) 
nan

>  <observation_longname>  (314) 
nan

>  <CrystalformSites alias>  (314) 
nan

>  <tags>  (314) 
[]

>  <ref_mols>  (314) 
A1776a

>  <ref_pdb>  (314) 
A1776a

>  <Quatassemblies upload name>  (314) 
nan

>  <inchikey>  (314) 
HOQXRQQAQAEPFI-UHFFFAOYSA-N

>  <Experiment code>  (314) 
nan

>  <Quatassemblies alias>  (314) 
nan

>  <Crystalforms upload name>  (314) 
nan

>  <Centroid res>  (314) 
nan

>  <ConformerSites upload name>  (314) 
nan

>  <energy_score>  (314) 
-7.902107

>  <original SMILES>  (314) 
O=Cc1ccc(NC(=O)CCl)cc1

>  <exports>  (314) 
nan

>  <CrystalformSites upload name>  (314) 
nan

>  <name>  (314) 
HOQXRQQAQAEPFI-UHFFFAOYSA-N

>  <HIPPO ID>  (314) 
167361

$$$$
MIOFTECZDPLDCS-UHFFFAOYSA-N
     RDKit          3D

 13 13  0  0  0  0  0  0  0  0999 V2000
   11.7862    9.3453   21.5800 O   0  0  0  0  0  0  0  0  0  0  0  0
   11.6532   10.3901   22.2021 C   0  0  0  0  0  0  0  0  0  0  0  0
   10.6371   10.5392   23.2503 C   0  0  0  0  0  0  0  0  0  0  0  0
   10.5466   11.7428   23.9444 C   0  0  0  0  0  0  0  0  0  0  0  0
    9.5134   11.9394   24.8630 C   0  0  0  0  0  0  0  0  0  0  0  0
    8.5621   10.9429   25.0720 C   0  0  0  0  0  0  0  0  0  0  0  0
    7.4257   11.1035   25.8840 N   0  0  0  0  0  0  0  0  0  0  0  0
    7.1590   12.1549   26.7426 C   0  0  0  0  0  0  0  0  0  0  0  0
    7.9800   12.9840   27.1280 O   0  0  0  0  0  0  0  0  0  0  0  0
    5.7190   12.1723   27.2310 C   0  0  0  0  0  0  0  0  0  0  0  0
    5.6559   11.8608   29.0171 S   0  0  0  0  0  0  0  0  0  0  0  0
    8.6875    9.7301   24.3902 C   0  0  0  0  0  0  0  0  0  0  0  0
    9.7278    9.5156   23.4901 C   0  0  0  0  0  0  0  0  0  0  0  0
  1  2  2  0
  2  3  1  0
  3  4  2  0
  4  5  1  0
  5  6  2  0
  6  7  1  0
  7  8  1  0
  8  9  2  0
  8 10  1  0
 10 11  1  0
  6 12  1  0
 12 13  2  0
 13  3  1  0
M  END
>  <Crystalforms alias>  (315) 
nan

>  <original ID>  (315) 
MIOFTECZDPLDCS-UHFFFAOYSA-N

>  <alias>  (315) 
None

>  <distance_score>  (315) 
0.414444

>  <CanonSites upload name>  (315) 
nan

>  <CanonSites alias>  (315) 
nan

>  <ConformerSites alias>  (315) 
nan

>  <observation_longname>  (315) 
nan

>  <CrystalformSites alias>  (315) 
nan

>  <tags>  (315) 
[]

>  <ref_mols>  (315) 
A1776a

>  <ref_pdb>  (315) 
A1776a

>  <Quatassemblies upload name>  (315) 
nan

>  <inchikey>  (315) 
MIOFTECZDPLDCS-UHFFFAOYSA-N

>  <Experiment code>  (315) 
nan

>  <Quatassemblies alias>  (315) 
nan

>  <Crystalforms upload name>  (315) 
nan

>  <Centroid res>  (315) 
nan

>  <ConformerSites upload name>  (315) 
nan

>  <energy_score>  (315) 
-13.956074

>  <original SMILES>  (315) 
O=Cc1ccc(NC(=O)CS)cc1

>  <exports>  (315) 
nan

>  <CrystalformSites upload name>  (315) 
nan

>  <name>  (315) 
MIOFTECZDPLDCS-UHFFFAOYSA-N

>  <HIPPO ID>  (315) 
167362

$$$$
GUECZUGPAPBSHB-UHFFFAOYSA-N
     RDKit          3D

 13 13  0  0  0  0  0  0  0  0999 V2000
    5.0043   11.0375   27.1032 O   0  0  0  0  0  0  0  0  0  0  0  0
    5.6781   12.0481   27.2473 C   0  0  0  0  0  0  0  0  0  0  0  0
    7.1019   12.1220   26.7247 C   0  0  0  0  0  0  0  0  0  0  0  0
    7.8097   13.0439   27.1004 O   0  0  0  0  0  0  0  0  0  0  0  0
    7.4096   11.0708   25.8956 N   0  0  0  0  0  0  0  0  0  0  0  0
    8.5415   10.9251   25.0828 C   0  0  0  0  0  0  0  0  0  0  0  0
    9.4894   11.9273   24.8865 C   0  0  0  0  0  0  0  0  0  0  0  0
   10.5253   11.7406   23.9677 C   0  0  0  0  0  0  0  0  0  0  0  0
   10.6222   10.5420   23.2639 C   0  0  0  0  0  0  0  0  0  0  0  0
   11.6411   10.4020   22.2163 C   0  0  0  0  0  0  0  0  0  0  0  0
   11.7846    9.3596   21.5922 O   0  0  0  0  0  0  0  0  0  0  0  0
    9.7165    9.5134   23.4945 C   0  0  0  0  0  0  0  0  0  0  0  0
    8.6739    9.7181   24.3938 C   0  0  0  0  0  0  0  0  0  0  0  0
  1  2  2  0
  2  3  1  0
  3  4  2  0
  3  5  1  0
  5  6  1  0
  6  7  2  0
  7  8  1  0
  8  9  2  0
  9 10  1  0
 10 11  2  0
  9 12  1  0
 12 13  2  0
 13  6  1  0
M  END
>  <Crystalforms alias>  (316) 
nan

>  <original ID>  (316) 
GUECZUGPAPBSHB-UHFFFAOYSA-N

>  <alias>  (316) 
None

>  <distance_score>  (316) 
0.425443

>  <CanonSites upload name>  (316) 
nan

>  <CanonSites alias>  (316) 
nan

>  <ConformerSites alias>  (316) 
nan

>  <observation_longname>  (316) 
nan

>  <CrystalformSites alias>  (316) 
nan

>  <tags>  (316) 
[]

>  <ref_mols>  (316) 
A1776a

>  <ref_pdb>  (316) 
A1776a

>  <Quatassemblies upload name>  (316) 
nan

>  <inchikey>  (316) 
GUECZUGPAPBSHB-UHFFFAOYSA-N

>  <Experiment code>  (316) 
nan

>  <Quatassemblies alias>  (316) 
nan

>  <Crystalforms upload name>  (316) 
nan

>  <Centroid res>  (316) 
nan

>  <ConformerSites upload name>  (316) 
nan

>  <energy_score>  (316) 
-10.060343

>  <original SMILES>  (316) 
O=CC(=O)Nc1ccc(C=O)cc1

>  <exports>  (316) 
nan

>  <CrystalformSites upload name>  (316) 
nan

>  <name>  (316) 
GUECZUGPAPBSHB-UHFFFAOYSA-N

>  <HIPPO ID>  (316) 
167363

$$$$
MFYWNHWBQSXPDY-UHFFFAOYSA-N
     RDKit          3D

 13 13  0  0  0  0  0  0  0  0999 V2000
    5.0104   13.0523   27.4102 N   0  0  0  0  0  0  0  0  0  0  0  0
    5.7790   11.8063   27.4775 C   0  0  0  0  0  0  0  0  0  0  0  0
    7.1733   11.9821   26.8491 C   0  0  0  0  0  0  0  0  0  0  0  0
    7.9315   12.8903   27.1803 O   0  0  0  0  0  0  0  0  0  0  0  0
    7.4585   10.9830   25.9345 N   0  0  0  0  0  0  0  0  0  0  0  0
    8.5710   10.8897   25.0825 C   0  0  0  0  0  0  0  0  0  0  0  0
    8.7185    9.6920   24.3779 C   0  0  0  0  0  0  0  0  0  0  0  0
    9.7551    9.5131   23.4684 C   0  0  0  0  0  0  0  0  0  0  0  0
   10.6392   10.5594   23.2387 C   0  0  0  0  0  0  0  0  0  0  0  0
   11.6622   10.4320   22.1944 C   0  0  0  0  0  0  0  0  0  0  0  0
   11.8137    9.3908   21.5691 O   0  0  0  0  0  0  0  0  0  0  0  0
   10.5197   11.7552   23.9444 C   0  0  0  0  0  0  0  0  0  0  0  0
    9.4890   11.9160   24.8749 C   0  0  0  0  0  0  0  0  0  0  0  0
  1  2  1  0
  2  3  1  0
  3  4  2  0
  3  5  1  0
  5  6  1  0
  6  7  2  0
  7  8  1  0
  8  9  2  0
  9 10  1  0
 10 11  2  0
  9 12  1  0
 12 13  2  0
 13  6  1  0
M  END
>  <Crystalforms alias>  (317) 
nan

>  <original ID>  (317) 
MFYWNHWBQSXPDY-UHFFFAOYSA-N

>  <alias>  (317) 
None

>  <distance_score>  (317) 
0.420577

>  <CanonSites upload name>  (317) 
nan

>  <CanonSites alias>  (317) 
nan

>  <ConformerSites alias>  (317) 
nan

>  <observation_longname>  (317) 
nan

>  <CrystalformSites alias>  (317) 
nan

>  <tags>  (317) 
[]

>  <ref_mols>  (317) 
A1776a

>  <ref_pdb>  (317) 
A1776a

>  <Quatassemblies upload name>  (317) 
nan

>  <inchikey>  (317) 
MFYWNHWBQSXPDY-UHFFFAOYSA-N

>  <Experiment code>  (317) 
nan

>  <Quatassemblies alias>  (317) 
nan

>  <Crystalforms upload name>  (317) 
nan

>  <Centroid res>  (317) 
nan

>  <ConformerSites upload name>  (317) 
nan

>  <energy_score>  (317) 
-17.751946

>  <original SMILES>  (317) 
NCC(=O)Nc1ccc(C=O)cc1

>  <exports>  (317) 
nan

>  <CrystalformSites upload name>  (317) 
nan

>  <name>  (317) 
MFYWNHWBQSXPDY-UHFFFAOYSA-N

>  <HIPPO ID>  (317) 
167366

$$$$
AQZGQRGEZQQAOT-UHFFFAOYSA-N
     RDKit          3D

 14 14  0  0  0  0  0  0  0  0999 V2000
   12.3926   12.0235   21.9506 C   0  0  0  0  0  0  0  0  0  0  0  0
   11.6731   10.7255   22.2773 C   0  0  0  0  0  0  0  0  0  0  0  0
   11.8724    9.6825   21.6568 O   0  0  0  0  0  0  0  0  0  0  0  0
   10.6376   10.7530   23.3387 C   0  0  0  0  0  0  0  0  0  0  0  0
    9.7517    9.6863   23.4651 C   0  0  0  0  0  0  0  0  0  0  0  0
    8.6717    9.7895   24.3431 C   0  0  0  0  0  0  0  0  0  0  0  0
    8.4817   10.9347   25.1196 C   0  0  0  0  0  0  0  0  0  0  0  0
    7.3103   11.0200   25.8893 N   0  0  0  0  0  0  0  0  0  0  0  0
    7.0144   11.9961   26.8200 C   0  0  0  0  0  0  0  0  0  0  0  0
    7.7670   12.8180   27.3214 O   0  0  0  0  0  0  0  0  0  0  0  0
    5.5770   11.9197   27.3091 C   0  0  0  0  0  0  0  0  0  0  0  0
    4.8415   12.8923   27.3323 O   0  0  0  0  0  0  0  0  0  0  0  0
    9.4147   11.9600   25.0473 C   0  0  0  0  0  0  0  0  0  0  0  0
   10.4816   11.8682   24.1574 C   0  0  0  0  0  0  0  0  0  0  0  0
  1  2  1  0
  2  3  2  0
  2  4  1  0
  4  5  2  0
  5  6  1  0
  6  7  2  0
  7  8  1  0
  8  9  1  0
  9 10  2  0
  9 11  1  0
 11 12  2  0
  7 13  1  0
 13 14  2  0
 14  4  1  0
M  END
>  <Crystalforms alias>  (318) 
nan

>  <original ID>  (318) 
AQZGQRGEZQQAOT-UHFFFAOYSA-N

>  <alias>  (318) 
None

>  <distance_score>  (318) 
0.564119

>  <CanonSites upload name>  (318) 
nan

>  <CanonSites alias>  (318) 
nan

>  <ConformerSites alias>  (318) 
nan

>  <observation_longname>  (318) 
nan

>  <CrystalformSites alias>  (318) 
nan

>  <tags>  (318) 
[]

>  <ref_mols>  (318) 
A1776a

>  <ref_pdb>  (318) 
A1776a

>  <Quatassemblies upload name>  (318) 
nan

>  <inchikey>  (318) 
AQZGQRGEZQQAOT-UHFFFAOYSA-N

>  <Experiment code>  (318) 
nan

>  <Quatassemblies alias>  (318) 
nan

>  <Crystalforms upload name>  (318) 
nan

>  <Centroid res>  (318) 
nan

>  <ConformerSites upload name>  (318) 
nan

>  <energy_score>  (318) 
-1.071267

>  <original SMILES>  (318) 
CC(=O)c1ccc(NC(=O)C=O)cc1

>  <exports>  (318) 
nan

>  <CrystalformSites upload name>  (318) 
nan

>  <name>  (318) 
AQZGQRGEZQQAOT-UHFFFAOYSA-N

>  <HIPPO ID>  (318) 
167466

$$$$
DSUSWRFOKLIZNA-UHFFFAOYSA-N
     RDKit          3D

 14 14  0  0  0  0  0  0  0  0999 V2000
   12.4536   11.4267   21.8853 N   0  0  0  0  0  0  0  0  0  0  0  0
   11.6233   10.3821   22.1924 C   0  0  0  0  0  0  0  0  0  0  0  0
   11.6814    9.3390   21.5574 O   0  0  0  0  0  0  0  0  0  0  0  0
   10.6364   10.5767   23.2791 C   0  0  0  0  0  0  0  0  0  0  0  0
   10.5191   11.7859   23.9645 C   0  0  0  0  0  0  0  0  0  0  0  0
    9.4861   11.9810   24.8823 C   0  0  0  0  0  0  0  0  0  0  0  0
    8.5402   10.9826   25.0981 C   0  0  0  0  0  0  0  0  0  0  0  0
    7.3903   11.1730   25.8822 N   0  0  0  0  0  0  0  0  0  0  0  0
    7.1303   12.2658   26.6797 C   0  0  0  0  0  0  0  0  0  0  0  0
    7.9148   13.0927   27.1181 O   0  0  0  0  0  0  0  0  0  0  0  0
    5.6639   12.4063   27.0241 C   0  0  0  0  0  0  0  0  0  0  0  0
    5.2417   12.1551   28.1401 O   0  0  0  0  0  0  0  0  0  0  0  0
    8.6781    9.7638   24.4348 C   0  0  0  0  0  0  0  0  0  0  0  0
    9.7279    9.5510   23.5414 C   0  0  0  0  0  0  0  0  0  0  0  0
  1  2  1  0
  2  3  2  0
  2  4  1  0
  4  5  2  0
  5  6  1  0
  6  7  2  0
  7  8  1  0
  8  9  1  0
  9 10  2  0
  9 11  1  0
 11 12  2  0
  7 13  1  0
 13 14  2  0
 14  4  1  0
M  END
>  <Crystalforms alias>  (319) 
nan

>  <original ID>  (319) 
DSUSWRFOKLIZNA-UHFFFAOYSA-N

>  <alias>  (319) 
None

>  <distance_score>  (319) 
0.48715

>  <CanonSites upload name>  (319) 
nan

>  <CanonSites alias>  (319) 
nan

>  <ConformerSites alias>  (319) 
nan

>  <observation_longname>  (319) 
nan

>  <CrystalformSites alias>  (319) 
nan

>  <tags>  (319) 
[]

>  <ref_mols>  (319) 
A1776a

>  <ref_pdb>  (319) 
A1776a

>  <Quatassemblies upload name>  (319) 
nan

>  <inchikey>  (319) 
DSUSWRFOKLIZNA-UHFFFAOYSA-N

>  <Experiment code>  (319) 
nan

>  <Quatassemblies alias>  (319) 
nan

>  <Crystalforms upload name>  (319) 
nan

>  <Centroid res>  (319) 
nan

>  <ConformerSites upload name>  (319) 
nan

>  <energy_score>  (319) 
-22.582689

>  <original SMILES>  (319) 
NC(=O)c1ccc(NC(=O)C=O)cc1

>  <exports>  (319) 
nan

>  <CrystalformSites upload name>  (319) 
nan

>  <name>  (319) 
DSUSWRFOKLIZNA-UHFFFAOYSA-N

>  <HIPPO ID>  (319) 
167467

$$$$
WBJOQROPHCHERE-UHFFFAOYSA-N
     RDKit          3D

 14 14  0  0  0  0  0  0  0  0999 V2000
   12.4242   12.0220   21.9246 C   0  0  0  0  0  0  0  0  0  0  0  0
   11.6896   10.7317   22.2491 C   0  0  0  0  0  0  0  0  0  0  0  0
   11.8897    9.6839   21.6366 O   0  0  0  0  0  0  0  0  0  0  0  0
   10.6467   10.7684   23.3025 C   0  0  0  0  0  0  0  0  0  0  0  0
    9.8036    9.6737   23.4810 C   0  0  0  0  0  0  0  0  0  0  0  0
    8.7330    9.7656   24.3724 C   0  0  0  0  0  0  0  0  0  0  0  0
    8.5114   10.9295   25.1123 C   0  0  0  0  0  0  0  0  0  0  0  0
    7.3597   10.9912   25.9151 N   0  0  0  0  0  0  0  0  0  0  0  0
    7.0400   11.9930   26.8191 C   0  0  0  0  0  0  0  0  0  0  0  0
    7.8265   12.8346   27.2487 O   0  0  0  0  0  0  0  0  0  0  0  0
    5.5857   11.9377   27.2654 C   0  0  0  0  0  0  0  0  0  0  0  0
    5.4347   12.2587   29.0469 S   0  0  0  0  0  0  0  0  0  0  0  0
    9.3914   11.9944   24.9708 C   0  0  0  0  0  0  0  0  0  0  0  0
   10.4463   11.9140   24.0669 C   0  0  0  0  0  0  0  0  0  0  0  0
  1  2  1  0
  2  3  2  0
  2  4  1  0
  4  5  2  0
  5  6  1  0
  6  7  2  0
  7  8  1  0
  8  9  1  0
  9 10  2  0
  9 11  1  0
 11 12  1  0
  7 13  1  0
 13 14  2  0
 14  4  1  0
M  END
>  <Crystalforms alias>  (320) 
nan

>  <original ID>  (320) 
WBJOQROPHCHERE-UHFFFAOYSA-N

>  <alias>  (320) 
None

>  <distance_score>  (320) 
0.548856

>  <CanonSites upload name>  (320) 
nan

>  <CanonSites alias>  (320) 
nan

>  <ConformerSites alias>  (320) 
nan

>  <observation_longname>  (320) 
nan

>  <CrystalformSites alias>  (320) 
nan

>  <tags>  (320) 
[]

>  <ref_mols>  (320) 
A1776a

>  <ref_pdb>  (320) 
A1776a

>  <Quatassemblies upload name>  (320) 
nan

>  <inchikey>  (320) 
WBJOQROPHCHERE-UHFFFAOYSA-N

>  <Experiment code>  (320) 
nan

>  <Quatassemblies alias>  (320) 
nan

>  <Crystalforms upload name>  (320) 
nan

>  <Centroid res>  (320) 
nan

>  <ConformerSites upload name>  (320) 
nan

>  <energy_score>  (320) 
-13.286296

>  <original SMILES>  (320) 
CC(=O)c1ccc(NC(=O)CS)cc1

>  <exports>  (320) 
nan

>  <CrystalformSites upload name>  (320) 
nan

>  <name>  (320) 
WBJOQROPHCHERE-UHFFFAOYSA-N

>  <HIPPO ID>  (320) 
167478

$$$$
PUHUHYUCGBHMKX-UHFFFAOYSA-N
     RDKit          3D

 14 14  0  0  0  0  0  0  0  0999 V2000
   12.4470   11.5189   21.9212 N   0  0  0  0  0  0  0  0  0  0  0  0
   11.6288   10.4551   22.1934 C   0  0  0  0  0  0  0  0  0  0  0  0
   11.7241    9.4164   21.5539 O   0  0  0  0  0  0  0  0  0  0  0  0
   10.6181   10.6190   23.2629 C   0  0  0  0  0  0  0  0  0  0  0  0
   10.4386   11.8236   23.9470 C   0  0  0  0  0  0  0  0  0  0  0  0
    9.4058   11.9652   24.8783 C   0  0  0  0  0  0  0  0  0  0  0  0
    8.5242   10.9143   25.1067 C   0  0  0  0  0  0  0  0  0  0  0  0
    7.4145   10.9921   25.9643 N   0  0  0  0  0  0  0  0  0  0  0  0
    7.1404   11.9816   26.8924 C   0  0  0  0  0  0  0  0  0  0  0  0
    7.8925   12.8990   27.2130 O   0  0  0  0  0  0  0  0  0  0  0  0
    5.7890   11.7973   27.5620 C   0  0  0  0  0  0  0  0  0  0  0  0
    4.5531   12.8823   26.8189 S   0  0  0  0  0  0  0  0  0  0  0  0
    8.7086    9.7135   24.4196 C   0  0  0  0  0  0  0  0  0  0  0  0
    9.7572    9.5538   23.5176 C   0  0  0  0  0  0  0  0  0  0  0  0
  1  2  1  0
  2  3  2  0
  2  4  1  0
  4  5  2  0
  5  6  1  0
  6  7  2  0
  7  8  1  0
  8  9  1  0
  9 10  2  0
  9 11  1  0
 11 12  1  0
  7 13  1  0
 13 14  2  0
 14  4  1  0
M  END
>  <Crystalforms alias>  (321) 
nan

>  <original ID>  (321) 
PUHUHYUCGBHMKX-UHFFFAOYSA-N

>  <alias>  (321) 
None

>  <distance_score>  (321) 
0.725536

>  <CanonSites upload name>  (321) 
nan

>  <CanonSites alias>  (321) 
nan

>  <ConformerSites alias>  (321) 
nan

>  <observation_longname>  (321) 
nan

>  <CrystalformSites alias>  (321) 
nan

>  <tags>  (321) 
[]

>  <ref_mols>  (321) 
A1776a

>  <ref_pdb>  (321) 
A1776a

>  <Quatassemblies upload name>  (321) 
nan

>  <inchikey>  (321) 
PUHUHYUCGBHMKX-UHFFFAOYSA-N

>  <Experiment code>  (321) 
nan

>  <Quatassemblies alias>  (321) 
nan

>  <Crystalforms upload name>  (321) 
nan

>  <Centroid res>  (321) 
nan

>  <ConformerSites upload name>  (321) 
nan

>  <energy_score>  (321) 
-23.236898

>  <original SMILES>  (321) 
NC(=O)c1ccc(NC(=O)CS)cc1

>  <exports>  (321) 
nan

>  <CrystalformSites upload name>  (321) 
nan

>  <name>  (321) 
PUHUHYUCGBHMKX-UHFFFAOYSA-N

>  <HIPPO ID>  (321) 
167479

$$$$
FLMLTMFETZMOHW-UHFFFAOYSA-N
     RDKit          3D

 14 14  0  0  0  0  0  0  0  0999 V2000
   12.4207   12.0139   21.9227 C   0  0  0  0  0  0  0  0  0  0  0  0
   11.6891   10.7226   22.2527 C   0  0  0  0  0  0  0  0  0  0  0  0
   11.8856    9.6745   21.6399 O   0  0  0  0  0  0  0  0  0  0  0  0
   10.6518   10.7601   23.3116 C   0  0  0  0  0  0  0  0  0  0  0  0
   10.4716   11.9001   24.0883 C   0  0  0  0  0  0  0  0  0  0  0  0
    9.4156   11.9908   24.9892 C   0  0  0  0  0  0  0  0  0  0  0  0
    8.5153   10.9413   25.1175 C   0  0  0  0  0  0  0  0  0  0  0  0
    7.3521   11.0285   25.9014 N   0  0  0  0  0  0  0  0  0  0  0  0
    7.0386   12.0485   26.7921 C   0  0  0  0  0  0  0  0  0  0  0  0
    7.8511   12.8427   27.2602 O   0  0  0  0  0  0  0  0  0  0  0  0
    5.5562   12.0841   27.1201 C   0  0  0  0  0  0  0  0  0  0  0  0
    5.2647   12.8930   28.6709 Cl  0  0  0  0  0  0  0  0  0  0  0  0
    8.7217    9.7779   24.3725 C   0  0  0  0  0  0  0  0  0  0  0  0
    9.7928    9.6762   23.4820 C   0  0  0  0  0  0  0  0  0  0  0  0
  1  2  1  0
  2  3  2  0
  2  4  1  0
  4  5  2  0
  5  6  1  0
  6  7  2  0
  7  8  1  0
  8  9  1  0
  9 10  2  0
  9 11  1  0
 11 12  1  0
  7 13  1  0
 13 14  2  0
 14  4  1  0
M  END
>  <Crystalforms alias>  (322) 
nan

>  <original ID>  (322) 
FLMLTMFETZMOHW-UHFFFAOYSA-N

>  <alias>  (322) 
None

>  <distance_score>  (322) 
0.546944

>  <CanonSites upload name>  (322) 
nan

>  <CanonSites alias>  (322) 
nan

>  <ConformerSites alias>  (322) 
nan

>  <observation_longname>  (322) 
nan

>  <CrystalformSites alias>  (322) 
nan

>  <tags>  (322) 
[]

>  <ref_mols>  (322) 
A1776a

>  <ref_pdb>  (322) 
A1776a

>  <Quatassemblies upload name>  (322) 
nan

>  <inchikey>  (322) 
FLMLTMFETZMOHW-UHFFFAOYSA-N

>  <Experiment code>  (322) 
nan

>  <Quatassemblies alias>  (322) 
nan

>  <Crystalforms upload name>  (322) 
nan

>  <Centroid res>  (322) 
nan

>  <ConformerSites upload name>  (322) 
nan

>  <energy_score>  (322) 
-5.626978

>  <original SMILES>  (322) 
CC(=O)c1ccc(NC(=O)CCl)cc1

>  <exports>  (322) 
nan

>  <CrystalformSites upload name>  (322) 
nan

>  <name>  (322) 
FLMLTMFETZMOHW-UHFFFAOYSA-N

>  <HIPPO ID>  (322) 
167492

$$$$
LOVVDWAISSOSRE-UHFFFAOYSA-N
     RDKit          3D

 14 14  0  0  0  0  0  0  0  0999 V2000
   12.4012   12.0258   21.9423 C   0  0  0  0  0  0  0  0  0  0  0  0
   11.6735   10.7315   22.2650 C   0  0  0  0  0  0  0  0  0  0  0  0
   11.8805    9.6857   21.6514 O   0  0  0  0  0  0  0  0  0  0  0  0
   10.6314   10.7631   23.3199 C   0  0  0  0  0  0  0  0  0  0  0  0
    9.7732    9.6772   23.4767 C   0  0  0  0  0  0  0  0  0  0  0  0
    8.7064    9.7668   24.3723 C   0  0  0  0  0  0  0  0  0  0  0  0
    8.5042   10.9170   25.1374 C   0  0  0  0  0  0  0  0  0  0  0  0
    7.3730   10.9678   25.9576 N   0  0  0  0  0  0  0  0  0  0  0  0
    7.0411   11.9316   26.8896 C   0  0  0  0  0  0  0  0  0  0  0  0
    7.7585   12.8439   27.2928 O   0  0  0  0  0  0  0  0  0  0  0  0
    5.6172   11.7432   27.4253 C   0  0  0  0  0  0  0  0  0  0  0  0
    5.1880   10.3323   27.3255 N   0  0  0  0  0  0  0  0  0  0  0  0
    9.3973   11.9725   25.0181 C   0  0  0  0  0  0  0  0  0  0  0  0
   10.4492   11.8955   24.1098 C   0  0  0  0  0  0  0  0  0  0  0  0
  1  2  1  0
  2  3  2  0
  2  4  1  0
  4  5  2  0
  5  6  1  0
  6  7  2  0
  7  8  1  0
  8  9  1  0
  9 10  2  0
  9 11  1  0
 11 12  1  0
  7 13  1  0
 13 14  2  0
 14  4  1  0
M  END
>  <Crystalforms alias>  (323) 
nan

>  <original ID>  (323) 
LOVVDWAISSOSRE-UHFFFAOYSA-N

>  <alias>  (323) 
None

>  <distance_score>  (323) 
0.569703

>  <CanonSites upload name>  (323) 
nan

>  <CanonSites alias>  (323) 
nan

>  <ConformerSites alias>  (323) 
nan

>  <observation_longname>  (323) 
nan

>  <CrystalformSites alias>  (323) 
nan

>  <tags>  (323) 
[]

>  <ref_mols>  (323) 
A1776a

>  <ref_pdb>  (323) 
A1776a

>  <Quatassemblies upload name>  (323) 
nan

>  <inchikey>  (323) 
LOVVDWAISSOSRE-UHFFFAOYSA-N

>  <Experiment code>  (323) 
nan

>  <Quatassemblies alias>  (323) 
nan

>  <Crystalforms upload name>  (323) 
nan

>  <Centroid res>  (323) 
nan

>  <ConformerSites upload name>  (323) 
nan

>  <energy_score>  (323) 
-15.529679

>  <original SMILES>  (323) 
CC(=O)c1ccc(NC(=O)CN)cc1

>  <exports>  (323) 
nan

>  <CrystalformSites upload name>  (323) 
nan

>  <name>  (323) 
LOVVDWAISSOSRE-UHFFFAOYSA-N

>  <HIPPO ID>  (323) 
167497

$$$$
SQPFUFBWIOSNBH-UHFFFAOYSA-N
     RDKit          3D

 14 14  0  0  0  0  0  0  0  0999 V2000
    5.4750   10.6409   27.8428 N   0  0  0  0  0  0  0  0  0  0  0  0
    5.7800   12.0346   27.4747 C   0  0  0  0  0  0  0  0  0  0  0  0
    7.1827   12.1388   26.8700 C   0  0  0  0  0  0  0  0  0  0  0  0
    7.9441   13.0468   27.1894 O   0  0  0  0  0  0  0  0  0  0  0  0
    7.4399   11.1140   25.9812 N   0  0  0  0  0  0  0  0  0  0  0  0
    8.5374   10.9753   25.1209 C   0  0  0  0  0  0  0  0  0  0  0  0
    9.4847   11.9736   24.9138 C   0  0  0  0  0  0  0  0  0  0  0  0
   10.5145   11.7866   23.9891 C   0  0  0  0  0  0  0  0  0  0  0  0
   10.6057   10.5982   23.2643 C   0  0  0  0  0  0  0  0  0  0  0  0
   11.6499   10.3967   22.2364 C   0  0  0  0  0  0  0  0  0  0  0  0
   12.3390   11.5049   21.8118 N   0  0  0  0  0  0  0  0  0  0  0  0
   11.8523    9.3044   21.7259 O   0  0  0  0  0  0  0  0  0  0  0  0
    9.6866    9.5778   23.5000 C   0  0  0  0  0  0  0  0  0  0  0  0
    8.6525    9.7769   24.4148 C   0  0  0  0  0  0  0  0  0  0  0  0
  1  2  1  0
  2  3  1  0
  3  4  2  0
  3  5  1  0
  5  6  1  0
  6  7  2  0
  7  8  1  0
  8  9  2  0
  9 10  1  0
 10 11  1  0
 10 12  2  0
  9 13  1  0
 13 14  2  0
 14  6  1  0
M  END
>  <Crystalforms alias>  (324) 
nan

>  <original ID>  (324) 
SQPFUFBWIOSNBH-UHFFFAOYSA-N

>  <alias>  (324) 
None

>  <distance_score>  (324) 
0.449721

>  <CanonSites upload name>  (324) 
nan

>  <CanonSites alias>  (324) 
nan

>  <ConformerSites alias>  (324) 
nan

>  <observation_longname>  (324) 
nan

>  <CrystalformSites alias>  (324) 
nan

>  <tags>  (324) 
[]

>  <ref_mols>  (324) 
A1776a

>  <ref_pdb>  (324) 
A1776a

>  <Quatassemblies upload name>  (324) 
nan

>  <inchikey>  (324) 
SQPFUFBWIOSNBH-UHFFFAOYSA-N

>  <Experiment code>  (324) 
nan

>  <Quatassemblies alias>  (324) 
nan

>  <Crystalforms upload name>  (324) 
nan

>  <Centroid res>  (324) 
nan

>  <ConformerSites upload name>  (324) 
nan

>  <energy_score>  (324) 
-33.705676

>  <original SMILES>  (324) 
NCC(=O)Nc1ccc(C(N)=O)cc1

>  <exports>  (324) 
nan

>  <CrystalformSites upload name>  (324) 
nan

>  <name>  (324) 
SQPFUFBWIOSNBH-UHFFFAOYSA-N

>  <HIPPO ID>  (324) 
167498

$$$$
AHXTYKMJPLXNOS-UHFFFAOYSA-N
     RDKit          3D

 14 14  0  0  0  0  0  0  0  0999 V2000
   12.3762   11.5091   21.7841 N   0  0  0  0  0  0  0  0  0  0  0  0
   11.6938   10.3952   22.2047 C   0  0  0  0  0  0  0  0  0  0  0  0
   11.8898    9.3082   21.6808 O   0  0  0  0  0  0  0  0  0  0  0  0
   10.6569   10.5835   23.2406 C   0  0  0  0  0  0  0  0  0  0  0  0
   10.5756   11.7575   23.9890 C   0  0  0  0  0  0  0  0  0  0  0  0
    9.5326   11.9443   24.8980 C   0  0  0  0  0  0  0  0  0  0  0  0
    8.5609   10.9613   25.0590 C   0  0  0  0  0  0  0  0  0  0  0  0
    7.4069   11.1275   25.8437 N   0  0  0  0  0  0  0  0  0  0  0  0
    7.1361   12.1738   26.7130 C   0  0  0  0  0  0  0  0  0  0  0  0
    7.9752   12.9524   27.1583 O   0  0  0  0  0  0  0  0  0  0  0  0
    5.6578   12.2677   27.0506 C   0  0  0  0  0  0  0  0  0  0  0  0
    5.4208   12.8954   28.6911 Cl  0  0  0  0  0  0  0  0  0  0  0  0
    8.6804    9.7665   24.3472 C   0  0  0  0  0  0  0  0  0  0  0  0
    9.7284    9.5670   23.4508 C   0  0  0  0  0  0  0  0  0  0  0  0
  1  2  1  0
  2  3  2  0
  2  4  1  0
  4  5  2  0
  5  6  1  0
  6  7  2  0
  7  8  1  0
  8  9  1  0
  9 10  2  0
  9 11  1  0
 11 12  1  0
  7 13  1  0
 13 14  2  0
 14  4  1  0
M  END
>  <Crystalforms alias>  (325) 
nan

>  <original ID>  (325) 
AHXTYKMJPLXNOS-UHFFFAOYSA-N

>  <alias>  (325) 
None

>  <distance_score>  (325) 
0.478391

>  <CanonSites upload name>  (325) 
nan

>  <CanonSites alias>  (325) 
nan

>  <ConformerSites alias>  (325) 
nan

>  <observation_longname>  (325) 
nan

>  <CrystalformSites alias>  (325) 
nan

>  <tags>  (325) 
[]

>  <ref_mols>  (325) 
A1776a

>  <ref_pdb>  (325) 
A1776a

>  <Quatassemblies upload name>  (325) 
nan

>  <inchikey>  (325) 
AHXTYKMJPLXNOS-UHFFFAOYSA-N

>  <Experiment code>  (325) 
nan

>  <Quatassemblies alias>  (325) 
nan

>  <Crystalforms upload name>  (325) 
nan

>  <Centroid res>  (325) 
nan

>  <ConformerSites upload name>  (325) 
nan

>  <energy_score>  (325) 
-8.271247

>  <original SMILES>  (325) 
NC(=O)c1ccc(NC(=O)CCl)cc1

>  <exports>  (325) 
nan

>  <CrystalformSites upload name>  (325) 
nan

>  <name>  (325) 
AHXTYKMJPLXNOS-UHFFFAOYSA-N

>  <HIPPO ID>  (325) 
167527

$$$$
ZFZKERKYEJXVKD-UHFFFAOYSA-N
     RDKit          3D

 14 14  0  0  0  0  0  0  0  0999 V2000
    5.8318   11.4245   29.8206 N   0  0  0  0  0  0  0  0  0  0  0  0
    5.7976   11.7168   28.6980 C   0  0  0  0  0  0  0  0  0  0  0  0
    5.7402   12.0579   27.2784 C   0  0  0  0  0  0  0  0  0  0  0  0
    7.1440   12.1110   26.7216 C   0  0  0  0  0  0  0  0  0  0  0  0
    7.9225   13.0001   27.0578 O   0  0  0  0  0  0  0  0  0  0  0  0
    7.4372   11.0606   25.8714 N   0  0  0  0  0  0  0  0  0  0  0  0
    8.5692   10.9264   25.0485 C   0  0  0  0  0  0  0  0  0  0  0  0
    8.7201    9.7092   24.3793 C   0  0  0  0  0  0  0  0  0  0  0  0
    9.7619    9.5078   23.4793 C   0  0  0  0  0  0  0  0  0  0  0  0
   10.6489   10.5476   23.2278 C   0  0  0  0  0  0  0  0  0  0  0  0
   11.6700   10.4036   22.1844 C   0  0  0  0  0  0  0  0  0  0  0  0
   11.8111    9.3577   21.5656 O   0  0  0  0  0  0  0  0  0  0  0  0
   10.5317   11.7580   23.9065 C   0  0  0  0  0  0  0  0  0  0  0  0
    9.4954   11.9430   24.8244 C   0  0  0  0  0  0  0  0  0  0  0  0
  1  2  3  0
  2  3  1  0
  3  4  1  0
  4  5  2  0
  4  6  1  0
  6  7  1  0
  7  8  2  0
  8  9  1  0
  9 10  2  0
 10 11  1  0
 11 12  2  0
 10 13  1  0
 13 14  2  0
 14  7  1  0
M  END
>  <Crystalforms alias>  (326) 
nan

>  <original ID>  (326) 
ZFZKERKYEJXVKD-UHFFFAOYSA-N

>  <alias>  (326) 
None

>  <distance_score>  (326) 
0.405409

>  <CanonSites upload name>  (326) 
nan

>  <CanonSites alias>  (326) 
nan

>  <ConformerSites alias>  (326) 
nan

>  <observation_longname>  (326) 
nan

>  <CrystalformSites alias>  (326) 
nan

>  <tags>  (326) 
[]

>  <ref_mols>  (326) 
A1776a

>  <ref_pdb>  (326) 
A1776a

>  <Quatassemblies upload name>  (326) 
nan

>  <inchikey>  (326) 
ZFZKERKYEJXVKD-UHFFFAOYSA-N

>  <Experiment code>  (326) 
nan

>  <Quatassemblies alias>  (326) 
nan

>  <Crystalforms upload name>  (326) 
nan

>  <Centroid res>  (326) 
nan

>  <ConformerSites upload name>  (326) 
nan

>  <energy_score>  (326) 
-7.288847

>  <original SMILES>  (326) 
N#CCC(=O)Nc1ccc(C=O)cc1

>  <exports>  (326) 
nan

>  <CrystalformSites upload name>  (326) 
nan

>  <name>  (326) 
ZFZKERKYEJXVKD-UHFFFAOYSA-N

>  <HIPPO ID>  (326) 
167545

$$$$
DKDUDJWZKFOBPM-UHFFFAOYSA-N
     RDKit          3D

 14 14  0  0  0  0  0  0  0  0999 V2000
   11.8505    9.4042   21.5508 O   0  0  0  0  0  0  0  0  0  0  0  0
   11.6875   10.4457   22.1730 C   0  0  0  0  0  0  0  0  0  0  0  0
   10.6580   10.5639   23.2111 C   0  0  0  0  0  0  0  0  0  0  0  0
   10.4992   11.7684   23.8937 C   0  0  0  0  0  0  0  0  0  0  0  0
    9.4554   11.9173   24.8117 C   0  0  0  0  0  0  0  0  0  0  0  0
    8.5651   10.8688   25.0299 C   0  0  0  0  0  0  0  0  0  0  0  0
    7.4358   10.9414   25.8629 N   0  0  0  0  0  0  0  0  0  0  0  0
    7.0825   11.9704   26.7288 C   0  0  0  0  0  0  0  0  0  0  0  0
    7.8044   12.9261   27.0112 O   0  0  0  0  0  0  0  0  0  0  0  0
    5.7055   11.7553   27.3626 C   0  0  0  0  0  0  0  0  0  0  0  0
    4.5762   12.9873   26.7960 Cl  0  0  0  0  0  0  0  0  0  0  0  0
    5.8741   11.8005   29.1305 Cl  0  0  0  0  0  0  0  0  0  0  0  0
    8.7570    9.6613   24.3529 C   0  0  0  0  0  0  0  0  0  0  0  0
    9.8042    9.4962   23.4546 C   0  0  0  0  0  0  0  0  0  0  0  0
  1  2  2  0
  2  3  1  0
  3  4  2  0
  4  5  1  0
  5  6  2  0
  6  7  1  0
  7  8  1  0
  8  9  2  0
  8 10  1  0
 10 11  1  0
 10 12  1  0
  6 13  1  0
 13 14  2  0
 14  3  1  0
M  END
>  <Crystalforms alias>  (327) 
nan

>  <original ID>  (327) 
DKDUDJWZKFOBPM-UHFFFAOYSA-N

>  <alias>  (327) 
None

>  <distance_score>  (327) 
0.412379

>  <CanonSites upload name>  (327) 
nan

>  <CanonSites alias>  (327) 
nan

>  <ConformerSites alias>  (327) 
nan

>  <observation_longname>  (327) 
nan

>  <CrystalformSites alias>  (327) 
nan

>  <tags>  (327) 
[]

>  <ref_mols>  (327) 
A1776a

>  <ref_pdb>  (327) 
A1776a

>  <Quatassemblies upload name>  (327) 
nan

>  <inchikey>  (327) 
DKDUDJWZKFOBPM-UHFFFAOYSA-N

>  <Experiment code>  (327) 
nan

>  <Quatassemblies alias>  (327) 
nan

>  <Crystalforms upload name>  (327) 
nan

>  <Centroid res>  (327) 
nan

>  <ConformerSites upload name>  (327) 
nan

>  <energy_score>  (327) 
-9.572603

>  <original SMILES>  (327) 
O=Cc1ccc(NC(=O)C(Cl)Cl)cc1

>  <exports>  (327) 
nan

>  <CrystalformSites upload name>  (327) 
nan

>  <name>  (327) 
DKDUDJWZKFOBPM-UHFFFAOYSA-N

>  <HIPPO ID>  (327) 
167553

$$$$
PZPYKIXOPOPDHD-UHFFFAOYSA-N
     RDKit          3D

 14 14  0  0  0  0  0  0  0  0999 V2000
    3.8056   10.9555   27.7068 C   0  0  0  0  0  0  0  0  0  0  0  0
    5.0442   10.9918   27.0113 O   0  0  0  0  0  0  0  0  0  0  0  0
    5.7263   12.2204   27.2540 C   0  0  0  0  0  0  0  0  0  0  0  0
    7.1739   12.2038   26.7633 C   0  0  0  0  0  0  0  0  0  0  0  0
    7.9803   13.0472   27.1477 O   0  0  0  0  0  0  0  0  0  0  0  0
    7.4255   11.1610   25.8985 N   0  0  0  0  0  0  0  0  0  0  0  0
    8.5515   10.9724   25.0864 C   0  0  0  0  0  0  0  0  0  0  0  0
    9.5262   11.9477   24.8854 C   0  0  0  0  0  0  0  0  0  0  0  0
   10.5556   11.7340   23.9673 C   0  0  0  0  0  0  0  0  0  0  0  0
   10.6200   10.5326   23.2664 C   0  0  0  0  0  0  0  0  0  0  0  0
   11.6341   10.3727   22.2174 C   0  0  0  0  0  0  0  0  0  0  0  0
   11.7625    9.3269   21.5966 O   0  0  0  0  0  0  0  0  0  0  0  0
    9.6880    9.5274   23.5006 C   0  0  0  0  0  0  0  0  0  0  0  0
    8.6500    9.7606   24.4002 C   0  0  0  0  0  0  0  0  0  0  0  0
  1  2  1  0
  2  3  1  0
  3  4  1  0
  4  5  2  0
  4  6  1  0
  6  7  1  0
  7  8  2  0
  8  9  1  0
  9 10  2  0
 10 11  1  0
 11 12  2  0
 10 13  1  0
 13 14  2  0
 14  7  1  0
M  END
>  <Crystalforms alias>  (328) 
nan

>  <original ID>  (328) 
PZPYKIXOPOPDHD-UHFFFAOYSA-N

>  <alias>  (328) 
None

>  <distance_score>  (328) 
0.430584

>  <CanonSites upload name>  (328) 
nan

>  <CanonSites alias>  (328) 
nan

>  <ConformerSites alias>  (328) 
nan

>  <observation_longname>  (328) 
nan

>  <CrystalformSites alias>  (328) 
nan

>  <tags>  (328) 
[]

>  <ref_mols>  (328) 
A1776a

>  <ref_pdb>  (328) 
A1776a

>  <Quatassemblies upload name>  (328) 
nan

>  <inchikey>  (328) 
PZPYKIXOPOPDHD-UHFFFAOYSA-N

>  <Experiment code>  (328) 
nan

>  <Quatassemblies alias>  (328) 
nan

>  <Crystalforms upload name>  (328) 
nan

>  <Centroid res>  (328) 
nan

>  <ConformerSites upload name>  (328) 
nan

>  <energy_score>  (328) 
-23.114511

>  <original SMILES>  (328) 
COCC(=O)Nc1ccc(C=O)cc1

>  <exports>  (328) 
nan

>  <CrystalformSites upload name>  (328) 
nan

>  <name>  (328) 
PZPYKIXOPOPDHD-UHFFFAOYSA-N

>  <HIPPO ID>  (328) 
167585

$$$$
WARPXUXEHZSECO-UHFFFAOYSA-N
     RDKit          3D

 14 14  0  0  0  0  0  0  0  0999 V2000
    5.7622   11.6389   28.8037 C   0  0  0  0  0  0  0  0  0  0  0  0
    5.8626   12.0712   27.5427 C   0  0  0  0  0  0  0  0  0  0  0  0
    4.4878   12.5551   26.6442 Cl  0  0  0  0  0  0  0  0  0  0  0  0
    7.2023   12.1485   26.8955 C   0  0  0  0  0  0  0  0  0  0  0  0
    8.0472   12.9301   27.3192 O   0  0  0  0  0  0  0  0  0  0  0  0
    7.3733   11.1850   25.9250 N   0  0  0  0  0  0  0  0  0  0  0  0
    8.4991   11.0022   25.1035 C   0  0  0  0  0  0  0  0  0  0  0  0
    8.5873    9.7996   24.3984 C   0  0  0  0  0  0  0  0  0  0  0  0
    9.6326    9.5613   23.5079 C   0  0  0  0  0  0  0  0  0  0  0  0
   10.5814   10.5548   23.2953 C   0  0  0  0  0  0  0  0  0  0  0  0
   11.6026   10.3905   22.2521 C   0  0  0  0  0  0  0  0  0  0  0  0
   11.7302    9.3444   21.6309 O   0  0  0  0  0  0  0  0  0  0  0  0
   10.5253   11.7477   24.0125 C   0  0  0  0  0  0  0  0  0  0  0  0
    9.4904   11.9646   24.9262 C   0  0  0  0  0  0  0  0  0  0  0  0
  1  2  2  0
  2  3  1  0
  2  4  1  0
  4  5  2  0
  4  6  1  0
  6  7  1  0
  7  8  2  0
  8  9  1  0
  9 10  2  0
 10 11  1  0
 11 12  2  0
 10 13  1  0
 13 14  2  0
 14  7  1  0
M  END
>  <Crystalforms alias>  (329) 
nan

>  <original ID>  (329) 
WARPXUXEHZSECO-UHFFFAOYSA-N

>  <alias>  (329) 
None

>  <distance_score>  (329) 
0.463249

>  <CanonSites upload name>  (329) 
nan

>  <CanonSites alias>  (329) 
nan

>  <ConformerSites alias>  (329) 
nan

>  <observation_longname>  (329) 
nan

>  <CrystalformSites alias>  (329) 
nan

>  <tags>  (329) 
[]

>  <ref_mols>  (329) 
A1776a

>  <ref_pdb>  (329) 
A1776a

>  <Quatassemblies upload name>  (329) 
nan

>  <inchikey>  (329) 
WARPXUXEHZSECO-UHFFFAOYSA-N

>  <Experiment code>  (329) 
nan

>  <Quatassemblies alias>  (329) 
nan

>  <Crystalforms upload name>  (329) 
nan

>  <Centroid res>  (329) 
nan

>  <ConformerSites upload name>  (329) 
nan

>  <energy_score>  (329) 
-14.007555

>  <original SMILES>  (329) 
C=C(Cl)C(=O)Nc1ccc(C=O)cc1

>  <exports>  (329) 
nan

>  <CrystalformSites upload name>  (329) 
nan

>  <name>  (329) 
WARPXUXEHZSECO-UHFFFAOYSA-N

>  <HIPPO ID>  (329) 
167586

$$$$
BRIDBKZNVPAXRH-UHFFFAOYSA-N
     RDKit          3D

 14 14  0  0  0  0  0  0  0  0999 V2000
   12.4307   11.4424   21.9109 N   0  0  0  0  0  0  0  0  0  0  0  0
   11.5991   10.3965   22.2107 C   0  0  0  0  0  0  0  0  0  0  0  0
   11.6638    9.3539   21.5753 O   0  0  0  0  0  0  0  0  0  0  0  0
   10.6084   10.5899   23.2948 C   0  0  0  0  0  0  0  0  0  0  0  0
   10.4889   11.7985   23.9822 C   0  0  0  0  0  0  0  0  0  0  0  0
    9.4648   11.9860   24.9124 C   0  0  0  0  0  0  0  0  0  0  0  0
    8.5311   10.9800   25.1410 C   0  0  0  0  0  0  0  0  0  0  0  0
    7.4101   11.1471   25.9679 N   0  0  0  0  0  0  0  0  0  0  0  0
    7.1633   12.1975   26.8297 C   0  0  0  0  0  0  0  0  0  0  0  0
    7.9836   13.0134   27.2408 O   0  0  0  0  0  0  0  0  0  0  0  0
    5.7076   12.2372   27.2976 C   0  0  0  0  0  0  0  0  0  0  0  0
    4.8168   11.4682   26.5095 O   0  0  0  0  0  0  0  0  0  0  0  0
    8.6611    9.7685   24.4625 C   0  0  0  0  0  0  0  0  0  0  0  0
    9.7023    9.5625   23.5571 C   0  0  0  0  0  0  0  0  0  0  0  0
  1  2  1  0
  2  3  2  0
  2  4  1  0
  4  5  2  0
  5  6  1  0
  6  7  2  0
  7  8  1  0
  8  9  1  0
  9 10  2  0
  9 11  1  0
 11 12  1  0
  7 13  1  0
 13 14  2  0
 14  4  1  0
M  END
>  <Crystalforms alias>  (330) 
nan

>  <original ID>  (330) 
BRIDBKZNVPAXRH-UHFFFAOYSA-N

>  <alias>  (330) 
None

>  <distance_score>  (330) 
0.49369

>  <CanonSites upload name>  (330) 
nan

>  <CanonSites alias>  (330) 
nan

>  <ConformerSites alias>  (330) 
nan

>  <observation_longname>  (330) 
nan

>  <CrystalformSites alias>  (330) 
nan

>  <tags>  (330) 
[]

>  <ref_mols>  (330) 
A1776a

>  <ref_pdb>  (330) 
A1776a

>  <Quatassemblies upload name>  (330) 
nan

>  <inchikey>  (330) 
BRIDBKZNVPAXRH-UHFFFAOYSA-N

>  <Experiment code>  (330) 
nan

>  <Quatassemblies alias>  (330) 
nan

>  <Crystalforms upload name>  (330) 
nan

>  <Centroid res>  (330) 
nan

>  <ConformerSites upload name>  (330) 
nan

>  <energy_score>  (330) 
-30.087847

>  <original SMILES>  (330) 
NC(=O)c1ccc(NC(=O)CO)cc1

>  <exports>  (330) 
nan

>  <CrystalformSites upload name>  (330) 
nan

>  <name>  (330) 
BRIDBKZNVPAXRH-UHFFFAOYSA-N

>  <HIPPO ID>  (330) 
167619

$$$$
ZLGXOIGFHQTJFD-UHFFFAOYSA-N
     RDKit          3D

 14 14  0  0  0  0  0  0  0  0999 V2000
   12.4189   12.0158   21.9243 C   0  0  0  0  0  0  0  0  0  0  0  0
   11.6787   10.7294   22.2535 C   0  0  0  0  0  0  0  0  0  0  0  0
   11.8755    9.6784   21.6458 O   0  0  0  0  0  0  0  0  0  0  0  0
   10.6386   10.7737   23.3100 C   0  0  0  0  0  0  0  0  0  0  0  0
    9.7941    9.6817   23.5024 C   0  0  0  0  0  0  0  0  0  0  0  0
    8.7385    9.7764   24.4123 C   0  0  0  0  0  0  0  0  0  0  0  0
    8.5360   10.9405   25.1568 C   0  0  0  0  0  0  0  0  0  0  0  0
    7.4155   11.0045   25.9957 N   0  0  0  0  0  0  0  0  0  0  0  0
    7.1032   12.0134   26.8900 C   0  0  0  0  0  0  0  0  0  0  0  0
    7.8591   12.8851   27.3086 O   0  0  0  0  0  0  0  0  0  0  0  0
    5.6573   11.9190   27.3742 C   0  0  0  0  0  0  0  0  0  0  0  0
    4.8505   11.0875   26.5530 O   0  0  0  0  0  0  0  0  0  0  0  0
    9.4097   12.0069   24.9924 C   0  0  0  0  0  0  0  0  0  0  0  0
   10.4481   11.9236   24.0706 C   0  0  0  0  0  0  0  0  0  0  0  0
  1  2  1  0
  2  3  2  0
  2  4  1  0
  4  5  2  0
  5  6  1  0
  6  7  2  0
  7  8  1  0
  8  9  1  0
  9 10  2  0
  9 11  1  0
 11 12  1  0
  7 13  1  0
 13 14  2  0
 14  4  1  0
M  END
>  <Crystalforms alias>  (331) 
nan

>  <original ID>  (331) 
ZLGXOIGFHQTJFD-UHFFFAOYSA-N

>  <alias>  (331) 
None

>  <distance_score>  (331) 
0.890303

>  <CanonSites upload name>  (331) 
nan

>  <CanonSites alias>  (331) 
nan

>  <ConformerSites alias>  (331) 
nan

>  <observation_longname>  (331) 
nan

>  <CrystalformSites alias>  (331) 
nan

>  <tags>  (331) 
[]

>  <ref_mols>  (331) 
A1776a

>  <ref_pdb>  (331) 
A1776a

>  <Quatassemblies upload name>  (331) 
nan

>  <inchikey>  (331) 
ZLGXOIGFHQTJFD-UHFFFAOYSA-N

>  <Experiment code>  (331) 
nan

>  <Quatassemblies alias>  (331) 
nan

>  <Crystalforms upload name>  (331) 
nan

>  <Centroid res>  (331) 
nan

>  <ConformerSites upload name>  (331) 
nan

>  <energy_score>  (331) 
-12.911562

>  <original SMILES>  (331) 
CC(=O)c1ccc(NC(=O)CO)cc1

>  <exports>  (331) 
nan

>  <CrystalformSites upload name>  (331) 
nan

>  <name>  (331) 
ZLGXOIGFHQTJFD-UHFFFAOYSA-N

>  <HIPPO ID>  (331) 
167620

$$$$
YUSXGCNFQGZARX-UHFFFAOYSA-N
     RDKit          3D

 15 15  0  0  0  0  0  0  0  0999 V2000
    5.7529   10.1524   29.2422 N   0  0  0  0  0  0  0  0  0  0  0  0
    5.7470   10.9664   28.4153 C   0  0  0  0  0  0  0  0  0  0  0  0
    5.7500   11.9653   27.3495 C   0  0  0  0  0  0  0  0  0  0  0  0
    7.1407   12.0659   26.7687 C   0  0  0  0  0  0  0  0  0  0  0  0
    7.9137   12.9476   27.1360 O   0  0  0  0  0  0  0  0  0  0  0  0
    7.4231   11.0572   25.8648 N   0  0  0  0  0  0  0  0  0  0  0  0
    8.5555   10.9431   25.0420 C   0  0  0  0  0  0  0  0  0  0  0  0
    8.7062    9.7461   24.3390 C   0  0  0  0  0  0  0  0  0  0  0  0
    9.7547    9.5679   23.4403 C   0  0  0  0  0  0  0  0  0  0  0  0
   10.6539   10.6073   23.2176 C   0  0  0  0  0  0  0  0  0  0  0  0
   11.7032   10.4250   22.1930 C   0  0  0  0  0  0  0  0  0  0  0  0
   12.3856   11.5418   21.7799 N   0  0  0  0  0  0  0  0  0  0  0  0
   11.9121    9.3380   21.6735 O   0  0  0  0  0  0  0  0  0  0  0  0
   10.5341   11.7912   23.9464 C   0  0  0  0  0  0  0  0  0  0  0  0
    9.4893   11.9578   24.8587 C   0  0  0  0  0  0  0  0  0  0  0  0
  1  2  3  0
  2  3  1  0
  3  4  1  0
  4  5  2  0
  4  6  1  0
  6  7  1  0
  7  8  2  0
  8  9  1  0
  9 10  2  0
 10 11  1  0
 11 12  1  0
 11 13  2  0
 10 14  1  0
 14 15  2  0
 15  7  1  0
M  END
>  <Crystalforms alias>  (332) 
nan

>  <original ID>  (332) 
YUSXGCNFQGZARX-UHFFFAOYSA-N

>  <alias>  (332) 
None

>  <distance_score>  (332) 
0.406346

>  <CanonSites upload name>  (332) 
nan

>  <CanonSites alias>  (332) 
nan

>  <ConformerSites alias>  (332) 
nan

>  <observation_longname>  (332) 
nan

>  <CrystalformSites alias>  (332) 
nan

>  <tags>  (332) 
[]

>  <ref_mols>  (332) 
A1776a

>  <ref_pdb>  (332) 
A1776a

>  <Quatassemblies upload name>  (332) 
nan

>  <inchikey>  (332) 
YUSXGCNFQGZARX-UHFFFAOYSA-N

>  <Experiment code>  (332) 
nan

>  <Quatassemblies alias>  (332) 
nan

>  <Crystalforms upload name>  (332) 
nan

>  <Centroid res>  (332) 
nan

>  <ConformerSites upload name>  (332) 
nan

>  <energy_score>  (332) 
-15.745361

>  <original SMILES>  (332) 
N#CCC(=O)Nc1ccc(C(N)=O)cc1

>  <exports>  (332) 
nan

>  <CrystalformSites upload name>  (332) 
nan

>  <name>  (332) 
YUSXGCNFQGZARX-UHFFFAOYSA-N

>  <HIPPO ID>  (332) 
168210

$$$$
WPFBRJWFVGBZJI-UHFFFAOYSA-N
     RDKit          3D

 15 15  0  0  0  0  0  0  0  0999 V2000
   12.4345   12.0442   21.9239 C   0  0  0  0  0  0  0  0  0  0  0  0
   11.6961   10.7556   22.2393 C   0  0  0  0  0  0  0  0  0  0  0  0
   11.9116    9.7050   21.6366 O   0  0  0  0  0  0  0  0  0  0  0  0
   10.6403   10.7909   23.2796 C   0  0  0  0  0  0  0  0  0  0  0  0
    9.8353    9.6718   23.4775 C   0  0  0  0  0  0  0  0  0  0  0  0
    8.7638    9.7427   24.3675 C   0  0  0  0  0  0  0  0  0  0  0  0
    8.5036   10.9101   25.0900 C   0  0  0  0  0  0  0  0  0  0  0  0
    7.3667   10.9247   25.9149 N   0  0  0  0  0  0  0  0  0  0  0  0
    7.0106   11.9117   26.8193 C   0  0  0  0  0  0  0  0  0  0  0  0
    7.7244   12.8405   27.1933 O   0  0  0  0  0  0  0  0  0  0  0  0
    5.6381   11.7097   27.4092 C   0  0  0  0  0  0  0  0  0  0  0  0
    4.6290   12.4751   26.6848 C   0  0  0  0  0  0  0  0  0  0  0  0
    3.7518   13.0307   26.1660 N   0  0  0  0  0  0  0  0  0  0  0  0
    9.3380   12.0072   24.9221 C   0  0  0  0  0  0  0  0  0  0  0  0
   10.3930   11.9480   24.0145 C   0  0  0  0  0  0  0  0  0  0  0  0
  1  2  1  0
  2  3  2  0
  2  4  1  0
  4  5  2  0
  5  6  1  0
  6  7  2  0
  7  8  1  0
  8  9  1  0
  9 10  2  0
  9 11  1  0
 11 12  1  0
 12 13  3  0
  7 14  1  0
 14 15  2  0
 15  4  1  0
M  END
>  <Crystalforms alias>  (333) 
nan

>  <original ID>  (333) 
WPFBRJWFVGBZJI-UHFFFAOYSA-N

>  <alias>  (333) 
None

>  <distance_score>  (333) 
0.894943

>  <CanonSites upload name>  (333) 
nan

>  <CanonSites alias>  (333) 
nan

>  <ConformerSites alias>  (333) 
nan

>  <observation_longname>  (333) 
nan

>  <CrystalformSites alias>  (333) 
nan

>  <tags>  (333) 
[]

>  <ref_mols>  (333) 
A1776a

>  <ref_pdb>  (333) 
A1776a

>  <Quatassemblies upload name>  (333) 
nan

>  <inchikey>  (333) 
WPFBRJWFVGBZJI-UHFFFAOYSA-N

>  <Experiment code>  (333) 
nan

>  <Quatassemblies alias>  (333) 
nan

>  <Crystalforms upload name>  (333) 
nan

>  <Centroid res>  (333) 
nan

>  <ConformerSites upload name>  (333) 
nan

>  <energy_score>  (333) 
-13.096157

>  <original SMILES>  (333) 
CC(=O)c1ccc(NC(=O)CC#N)cc1

>  <exports>  (333) 
nan

>  <CrystalformSites upload name>  (333) 
nan

>  <name>  (333) 
WPFBRJWFVGBZJI-UHFFFAOYSA-N

>  <HIPPO ID>  (333) 
168211

$$$$
RWKWOLGICUIPIY-UHFFFAOYSA-N
     RDKit          3D

 15 15  0  0  0  0  0  0  0  0999 V2000
   12.4808   11.7012   21.7271 N   0  0  0  0  0  0  0  0  0  0  0  0
   11.8339   10.5468   22.0912 C   0  0  0  0  0  0  0  0  0  0  0  0
   12.0852    9.4873   21.5323 O   0  0  0  0  0  0  0  0  0  0  0  0
   10.7710   10.6427   23.1111 C   0  0  0  0  0  0  0  0  0  0  0  0
   10.0012    9.5077   23.3430 C   0  0  0  0  0  0  0  0  0  0  0  0
    8.9419    9.5717   24.2357 C   0  0  0  0  0  0  0  0  0  0  0  0
    8.6460   10.7519   24.9203 C   0  0  0  0  0  0  0  0  0  0  0  0
    7.4986   10.7204   25.7214 N   0  0  0  0  0  0  0  0  0  0  0  0
    6.9935   11.7244   26.5397 C   0  0  0  0  0  0  0  0  0  0  0  0
    7.6198   12.7176   26.9044 O   0  0  0  0  0  0  0  0  0  0  0  0
    5.5724   11.3938   26.9955 C   0  0  0  0  0  0  0  0  0  0  0  0
    4.4996   12.7772   26.8317 Cl  0  0  0  0  0  0  0  0  0  0  0  0
    5.6435   10.7713   28.6505 Cl  0  0  0  0  0  0  0  0  0  0  0  0
    9.4461   11.8730   24.7277 C   0  0  0  0  0  0  0  0  0  0  0  0
   10.5083   11.8174   23.8203 C   0  0  0  0  0  0  0  0  0  0  0  0
  1  2  1  0
  2  3  2  0
  2  4  1  0
  4  5  2  0
  5  6  1  0
  6  7  2  0
  7  8  1  0
  8  9  1  0
  9 10  2  0
  9 11  1  0
 11 12  1  0
 11 13  1  0
  7 14  1  0
 14 15  2  0
 15  4  1  0
M  END
>  <Crystalforms alias>  (334) 
nan

>  <original ID>  (334) 
RWKWOLGICUIPIY-UHFFFAOYSA-N

>  <alias>  (334) 
None

>  <distance_score>  (334) 
0.50616

>  <CanonSites upload name>  (334) 
nan

>  <CanonSites alias>  (334) 
nan

>  <ConformerSites alias>  (334) 
nan

>  <observation_longname>  (334) 
nan

>  <CrystalformSites alias>  (334) 
nan

>  <tags>  (334) 
[]

>  <ref_mols>  (334) 
A1776a

>  <ref_pdb>  (334) 
A1776a

>  <Quatassemblies upload name>  (334) 
nan

>  <inchikey>  (334) 
RWKWOLGICUIPIY-UHFFFAOYSA-N

>  <Experiment code>  (334) 
nan

>  <Quatassemblies alias>  (334) 
nan

>  <Crystalforms upload name>  (334) 
nan

>  <Centroid res>  (334) 
nan

>  <ConformerSites upload name>  (334) 
nan

>  <energy_score>  (334) 
-9.958283

>  <original SMILES>  (334) 
NC(=O)c1ccc(NC(=O)C(Cl)Cl)cc1

>  <exports>  (334) 
nan

>  <CrystalformSites upload name>  (334) 
nan

>  <name>  (334) 
RWKWOLGICUIPIY-UHFFFAOYSA-N

>  <HIPPO ID>  (334) 
168297

$$$$
JHXKPLUKDRXVIJ-UHFFFAOYSA-N
     RDKit          3D

 15 15  0  0  0  0  0  0  0  0999 V2000
   12.4583   12.0491   21.9095 C   0  0  0  0  0  0  0  0  0  0  0  0
   11.7161   10.7617   22.2187 C   0  0  0  0  0  0  0  0  0  0  0  0
   11.9319    9.7120   21.6144 O   0  0  0  0  0  0  0  0  0  0  0  0
   10.6564   10.7947   23.2540 C   0  0  0  0  0  0  0  0  0  0  0  0
   10.3760   11.9615   23.9608 C   0  0  0  0  0  0  0  0  0  0  0  0
    9.3199   12.0096   24.8675 C   0  0  0  0  0  0  0  0  0  0  0  0
    8.5189   10.8917   25.0639 C   0  0  0  0  0  0  0  0  0  0  0  0
    7.3851   10.8884   25.8931 N   0  0  0  0  0  0  0  0  0  0  0  0
    6.9933   11.8961   26.7705 C   0  0  0  0  0  0  0  0  0  0  0  0
    7.6998   12.8488   27.1024 O   0  0  0  0  0  0  0  0  0  0  0  0
    5.5965   11.6711   27.3472 C   0  0  0  0  0  0  0  0  0  0  0  0
    4.5141   12.9664   26.8258 Cl  0  0  0  0  0  0  0  0  0  0  0  0
    5.7198   11.6166   29.1190 Cl  0  0  0  0  0  0  0  0  0  0  0  0
    8.8103    9.7172   24.3655 C   0  0  0  0  0  0  0  0  0  0  0  0
    9.8817    9.6584   23.4755 C   0  0  0  0  0  0  0  0  0  0  0  0
  1  2  1  0
  2  3  2  0
  2  4  1  0
  4  5  2  0
  5  6  1  0
  6  7  2  0
  7  8  1  0
  8  9  1  0
  9 10  2  0
  9 11  1  0
 11 12  1  0
 11 13  1  0
  7 14  1  0
 14 15  2  0
 15  4  1  0
M  END
>  <Crystalforms alias>  (335) 
nan

>  <original ID>  (335) 
JHXKPLUKDRXVIJ-UHFFFAOYSA-N

>  <alias>  (335) 
None

>  <distance_score>  (335) 
0.80424

>  <CanonSites upload name>  (335) 
nan

>  <CanonSites alias>  (335) 
nan

>  <ConformerSites alias>  (335) 
nan

>  <observation_longname>  (335) 
nan

>  <CrystalformSites alias>  (335) 
nan

>  <tags>  (335) 
[]

>  <ref_mols>  (335) 
A1776a

>  <ref_pdb>  (335) 
A1776a

>  <Quatassemblies upload name>  (335) 
nan

>  <inchikey>  (335) 
JHXKPLUKDRXVIJ-UHFFFAOYSA-N

>  <Experiment code>  (335) 
nan

>  <Quatassemblies alias>  (335) 
nan

>  <Crystalforms upload name>  (335) 
nan

>  <Centroid res>  (335) 
nan

>  <ConformerSites upload name>  (335) 
nan

>  <energy_score>  (335) 
-8.8531

>  <original SMILES>  (335) 
CC(=O)c1ccc(NC(=O)C(Cl)Cl)cc1

>  <exports>  (335) 
nan

>  <CrystalformSites upload name>  (335) 
nan

>  <name>  (335) 
JHXKPLUKDRXVIJ-UHFFFAOYSA-N

>  <HIPPO ID>  (335) 
168298

$$$$
DMEWEZIFTMEFDJ-UHFFFAOYSA-N
     RDKit          3D

 15 15  0  0  0  0  0  0  0  0999 V2000
    4.8109   13.0930   26.1999 C   0  0  0  0  0  0  0  0  0  0  0  0
    5.6084   12.5453   27.1190 C   0  0  0  0  0  0  0  0  0  0  0  0
    5.0414   12.3401   28.7139 Cl  0  0  0  0  0  0  0  0  0  0  0  0
    7.0470   12.2826   26.8392 C   0  0  0  0  0  0  0  0  0  0  0  0
    7.9135   12.8946   27.4571 O   0  0  0  0  0  0  0  0  0  0  0  0
    7.2490   11.3007   25.8888 N   0  0  0  0  0  0  0  0  0  0  0  0
    8.4414   11.0716   25.1784 C   0  0  0  0  0  0  0  0  0  0  0  0
    8.5431    9.9255   24.3869 C   0  0  0  0  0  0  0  0  0  0  0  0
    9.6258    9.7438   23.5191 C   0  0  0  0  0  0  0  0  0  0  0  0
   10.6036   10.7317   23.4253 C   0  0  0  0  0  0  0  0  0  0  0  0
   11.6171   10.6803   22.3418 C   0  0  0  0  0  0  0  0  0  0  0  0
   12.3338   11.9752   21.9871 C   0  0  0  0  0  0  0  0  0  0  0  0
   11.7879    9.6346   21.7185 O   0  0  0  0  0  0  0  0  0  0  0  0
   10.5523   11.8203   24.2895 C   0  0  0  0  0  0  0  0  0  0  0  0
    9.4792   11.9929   25.1576 C   0  0  0  0  0  0  0  0  0  0  0  0
  1  2  2  0
  2  3  1  0
  2  4  1  0
  4  5  2  0
  4  6  1  0
  6  7  1  0
  7  8  2  0
  8  9  1  0
  9 10  2  0
 10 11  1  0
 11 12  1  0
 11 13  2  0
 10 14  1  0
 14 15  2  0
 15  7  1  0
M  END
>  <Crystalforms alias>  (336) 
nan

>  <original ID>  (336) 
DMEWEZIFTMEFDJ-UHFFFAOYSA-N

>  <alias>  (336) 
None

>  <distance_score>  (336) 
0.625115

>  <CanonSites upload name>  (336) 
nan

>  <CanonSites alias>  (336) 
nan

>  <ConformerSites alias>  (336) 
nan

>  <observation_longname>  (336) 
nan

>  <CrystalformSites alias>  (336) 
nan

>  <tags>  (336) 
[]

>  <ref_mols>  (336) 
A1776a

>  <ref_pdb>  (336) 
A1776a

>  <Quatassemblies upload name>  (336) 
nan

>  <inchikey>  (336) 
DMEWEZIFTMEFDJ-UHFFFAOYSA-N

>  <Experiment code>  (336) 
nan

>  <Quatassemblies alias>  (336) 
nan

>  <Crystalforms upload name>  (336) 
nan

>  <Centroid res>  (336) 
nan

>  <ConformerSites upload name>  (336) 
nan

>  <energy_score>  (336) 
-8.555512

>  <original SMILES>  (336) 
C=C(Cl)C(=O)Nc1ccc(C(C)=O)cc1

>  <exports>  (336) 
nan

>  <CrystalformSites upload name>  (336) 
nan

>  <name>  (336) 
DMEWEZIFTMEFDJ-UHFFFAOYSA-N

>  <HIPPO ID>  (336) 
168322

$$$$
SZZQBNWGDJVFQE-UHFFFAOYSA-N
     RDKit          3D

 15 15  0  0  0  0  0  0  0  0999 V2000
    5.5357   10.9803   28.3828 C   0  0  0  0  0  0  0  0  0  0  0  0
    5.7370   11.8684   27.4031 C   0  0  0  0  0  0  0  0  0  0  0  0
    4.4642   12.8174   26.7576 Cl  0  0  0  0  0  0  0  0  0  0  0  0
    7.0932   12.0420   26.8137 C   0  0  0  0  0  0  0  0  0  0  0  0
    7.8204   12.9600   27.1748 O   0  0  0  0  0  0  0  0  0  0  0  0
    7.3994   11.0209   25.9387 N   0  0  0  0  0  0  0  0  0  0  0  0
    8.5242   10.9233   25.1055 C   0  0  0  0  0  0  0  0  0  0  0  0
    8.7023    9.7207   24.4204 C   0  0  0  0  0  0  0  0  0  0  0  0
    9.7534    9.5532   23.5224 C   0  0  0  0  0  0  0  0  0  0  0  0
   10.6233   10.6121   23.2716 C   0  0  0  0  0  0  0  0  0  0  0  0
   11.6285   10.4464   22.1969 C   0  0  0  0  0  0  0  0  0  0  0  0
   12.4459   11.5093   21.9186 N   0  0  0  0  0  0  0  0  0  0  0  0
   11.7201    9.4075   21.5572 O   0  0  0  0  0  0  0  0  0  0  0  0
   10.4556   11.8150   23.9619 C   0  0  0  0  0  0  0  0  0  0  0  0
    9.4206   11.9641   24.8892 C   0  0  0  0  0  0  0  0  0  0  0  0
  1  2  2  0
  2  3  1  0
  2  4  1  0
  4  5  2  0
  4  6  1  0
  6  7  1  0
  7  8  2  0
  8  9  1  0
  9 10  2  0
 10 11  1  0
 11 12  1  0
 11 13  2  0
 10 14  1  0
 14 15  2  0
 15  7  1  0
M  END
>  <Crystalforms alias>  (337) 
nan

>  <original ID>  (337) 
SZZQBNWGDJVFQE-UHFFFAOYSA-N

>  <alias>  (337) 
None

>  <distance_score>  (337) 
0.473649

>  <CanonSites upload name>  (337) 
nan

>  <CanonSites alias>  (337) 
nan

>  <ConformerSites alias>  (337) 
nan

>  <observation_longname>  (337) 
nan

>  <CrystalformSites alias>  (337) 
nan

>  <tags>  (337) 
[]

>  <ref_mols>  (337) 
A1776a

>  <ref_pdb>  (337) 
A1776a

>  <Quatassemblies upload name>  (337) 
nan

>  <inchikey>  (337) 
SZZQBNWGDJVFQE-UHFFFAOYSA-N

>  <Experiment code>  (337) 
nan

>  <Quatassemblies alias>  (337) 
nan

>  <Crystalforms upload name>  (337) 
nan

>  <Centroid res>  (337) 
nan

>  <ConformerSites upload name>  (337) 
nan

>  <energy_score>  (337) 
-21.256328

>  <original SMILES>  (337) 
C=C(Cl)C(=O)Nc1ccc(C(N)=O)cc1

>  <exports>  (337) 
nan

>  <CrystalformSites upload name>  (337) 
nan

>  <name>  (337) 
SZZQBNWGDJVFQE-UHFFFAOYSA-N

>  <HIPPO ID>  (337) 
168334

$$$$
VUHYETXCDOLTDY-UHFFFAOYSA-N
     RDKit          3D

 15 15  0  0  0  0  0  0  0  0999 V2000
    4.5806    9.8810   27.0453 C   0  0  0  0  0  0  0  0  0  0  0  0
    5.6497   10.5251   27.7130 O   0  0  0  0  0  0  0  0  0  0  0  0
    5.8140   11.8896   27.3335 C   0  0  0  0  0  0  0  0  0  0  0  0
    7.1995   12.1003   26.7267 C   0  0  0  0  0  0  0  0  0  0  0  0
    7.8588   13.1091   26.9571 O   0  0  0  0  0  0  0  0  0  0  0  0
    7.5653   11.0374   25.9240 N   0  0  0  0  0  0  0  0  0  0  0  0
    8.6477   10.9463   25.0453 C   0  0  0  0  0  0  0  0  0  0  0  0
    9.4746   12.0181   24.7290 C   0  0  0  0  0  0  0  0  0  0  0  0
   10.4917   11.8619   23.7861 C   0  0  0  0  0  0  0  0  0  0  0  0
   10.7034   10.6237   23.1756 C   0  0  0  0  0  0  0  0  0  0  0  0
   11.7091   10.4327   22.1082 C   0  0  0  0  0  0  0  0  0  0  0  0
   12.5428   11.4798   21.8162 N   0  0  0  0  0  0  0  0  0  0  0  0
   11.7945    9.3799   21.4915 O   0  0  0  0  0  0  0  0  0  0  0  0
    9.8871    9.5432   23.5066 C   0  0  0  0  0  0  0  0  0  0  0  0
    8.8558    9.7136   24.4246 C   0  0  0  0  0  0  0  0  0  0  0  0
  1  2  1  0
  2  3  1  0
  3  4  1  0
  4  5  2  0
  4  6  1  0
  6  7  1  0
  7  8  2  0
  8  9  1  0
  9 10  2  0
 10 11  1  0
 11 12  1  0
 11 13  2  0
 10 14  1  0
 14 15  2  0
 15  7  1  0
M  END
>  <Crystalforms alias>  (338) 
nan

>  <original ID>  (338) 
VUHYETXCDOLTDY-UHFFFAOYSA-N

>  <alias>  (338) 
None

>  <distance_score>  (338) 
0.433893

>  <CanonSites upload name>  (338) 
nan

>  <CanonSites alias>  (338) 
nan

>  <ConformerSites alias>  (338) 
nan

>  <observation_longname>  (338) 
nan

>  <CrystalformSites alias>  (338) 
nan

>  <tags>  (338) 
[]

>  <ref_mols>  (338) 
A1776a

>  <ref_pdb>  (338) 
A1776a

>  <Quatassemblies upload name>  (338) 
nan

>  <inchikey>  (338) 
VUHYETXCDOLTDY-UHFFFAOYSA-N

>  <Experiment code>  (338) 
nan

>  <Quatassemblies alias>  (338) 
nan

>  <Crystalforms upload name>  (338) 
nan

>  <Centroid res>  (338) 
nan

>  <ConformerSites upload name>  (338) 
nan

>  <energy_score>  (338) 
-27.772662

>  <original SMILES>  (338) 
COCC(=O)Nc1ccc(C(N)=O)cc1

>  <exports>  (338) 
nan

>  <CrystalformSites upload name>  (338) 
nan

>  <name>  (338) 
VUHYETXCDOLTDY-UHFFFAOYSA-N

>  <HIPPO ID>  (338) 
168336

$$$$
ORZFTELEAXKDTN-UHFFFAOYSA-N
     RDKit          3D

 15 15  0  0  0  0  0  0  0  0999 V2000
    5.1262    9.6094   27.5805 C   0  0  0  0  0  0  0  0  0  0  0  0
    5.1468   10.9172   28.1307 O   0  0  0  0  0  0  0  0  0  0  0  0
    5.5548   11.9298   27.2259 C   0  0  0  0  0  0  0  0  0  0  0  0
    7.0356   11.9654   26.8124 C   0  0  0  0  0  0  0  0  0  0  0  0
    7.8279   12.7495   27.3306 O   0  0  0  0  0  0  0  0  0  0  0  0
    7.3416   11.0270   25.8428 N   0  0  0  0  0  0  0  0  0  0  0  0
    8.5218   10.9336   25.0935 C   0  0  0  0  0  0  0  0  0  0  0  0
    8.7000    9.7949   24.3041 C   0  0  0  0  0  0  0  0  0  0  0  0
    9.7800    9.6904   23.4287 C   0  0  0  0  0  0  0  0  0  0  0  0
   10.6763   10.7497   23.3194 C   0  0  0  0  0  0  0  0  0  0  0  0
   11.7060   10.7280   22.2539 C   0  0  0  0  0  0  0  0  0  0  0  0
   12.4189   12.0290   21.9256 C   0  0  0  0  0  0  0  0  0  0  0  0
   11.9057    9.6865   21.6308 O   0  0  0  0  0  0  0  0  0  0  0  0
   10.5361   11.8531   24.1571 C   0  0  0  0  0  0  0  0  0  0  0  0
    9.4682   11.9463   25.0445 C   0  0  0  0  0  0  0  0  0  0  0  0
  1  2  1  0
  2  3  1  0
  3  4  1  0
  4  5  2  0
  4  6  1  0
  6  7  1  0
  7  8  2  0
  8  9  1  0
  9 10  2  0
 10 11  1  0
 11 12  1  0
 11 13  2  0
 10 14  1  0
 14 15  2  0
 15  7  1  0
M  END
>  <Crystalforms alias>  (339) 
nan

>  <original ID>  (339) 
ORZFTELEAXKDTN-UHFFFAOYSA-N

>  <alias>  (339) 
None

>  <distance_score>  (339) 
0.543509

>  <CanonSites upload name>  (339) 
nan

>  <CanonSites alias>  (339) 
nan

>  <ConformerSites alias>  (339) 
nan

>  <observation_longname>  (339) 
nan

>  <CrystalformSites alias>  (339) 
nan

>  <tags>  (339) 
[]

>  <ref_mols>  (339) 
A1776a

>  <ref_pdb>  (339) 
A1776a

>  <Quatassemblies upload name>  (339) 
nan

>  <inchikey>  (339) 
ORZFTELEAXKDTN-UHFFFAOYSA-N

>  <Experiment code>  (339) 
nan

>  <Quatassemblies alias>  (339) 
nan

>  <Crystalforms upload name>  (339) 
nan

>  <Centroid res>  (339) 
nan

>  <ConformerSites upload name>  (339) 
nan

>  <energy_score>  (339) 
-5.573865

>  <original SMILES>  (339) 
COCC(=O)Nc1ccc(C(C)=O)cc1

>  <exports>  (339) 
nan

>  <CrystalformSites upload name>  (339) 
nan

>  <name>  (339) 
ORZFTELEAXKDTN-UHFFFAOYSA-N

>  <HIPPO ID>  (339) 
168350

$$$$
PLFQWQITVHURQD-ZJUUUORDSA-N
     RDKit          3D

 15 16  0  0  0  0  0  0  0  0999 V2000
   11.8046    9.3616   21.5693 O   0  0  0  0  0  0  0  0  0  0  0  0
   11.6628   10.4058   22.1909 C   0  0  0  0  0  0  0  0  0  0  0  0
   10.6438   10.5489   23.2367 C   0  0  0  0  0  0  0  0  0  0  0  0
    9.7354    9.5224   23.4651 C   0  0  0  0  0  0  0  0  0  0  0  0
    8.6993    9.7263   24.3706 C   0  0  0  0  0  0  0  0  0  0  0  0
    8.5791   10.9291   25.0709 C   0  0  0  0  0  0  0  0  0  0  0  0
    7.4649   11.0608   25.9113 N   0  0  0  0  0  0  0  0  0  0  0  0
    7.2102   12.0541   26.8232 C   0  0  0  0  0  0  0  0  0  0  0  0
    7.9737   12.9404   27.1813 O   0  0  0  0  0  0  0  0  0  0  0  0
    5.8752   11.9841   27.4742 C   0  0  2  0  0  0  0  0  0  0  0  0
    5.6799   11.0156   28.6237 C   0  0  0  0  0  0  0  0  0  0  0  0
    4.9202   10.8376   27.3516 C   0  0  2  0  0  0  0  0  0  0  0  0
    5.2640    9.7656   26.5478 F   0  0  0  0  0  0  0  0  0  0  0  0
    9.5248   11.9313   24.8700 C   0  0  0  0  0  0  0  0  0  0  0  0
   10.5531   11.7464   23.9433 C   0  0  0  0  0  0  0  0  0  0  0  0
  1  2  2  0
  2  3  1  0
  3  4  2  0
  4  5  1  0
  5  6  2  0
  6  7  1  0
  7  8  1  0
  8  9  2  0
 10  8  1  6
 10 11  1  0
 11 12  1  0
 12 13  1  6
  6 14  1  0
 14 15  2  0
 15  3  1  0
 12 10  1  0
M  END
>  <Crystalforms alias>  (340) 
nan

>  <original ID>  (340) 
PLFQWQITVHURQD-ZJUUUORDSA-N

>  <alias>  (340) 
None

>  <distance_score>  (340) 
0.412069

>  <CanonSites upload name>  (340) 
nan

>  <CanonSites alias>  (340) 
nan

>  <ConformerSites alias>  (340) 
nan

>  <observation_longname>  (340) 
nan

>  <CrystalformSites alias>  (340) 
nan

>  <tags>  (340) 
[]

>  <ref_mols>  (340) 
A1776a

>  <ref_pdb>  (340) 
A1776a

>  <Quatassemblies upload name>  (340) 
nan

>  <inchikey>  (340) 
PLFQWQITVHURQD-ZJUUUORDSA-N

>  <Experiment code>  (340) 
nan

>  <Quatassemblies alias>  (340) 
nan

>  <Crystalforms upload name>  (340) 
nan

>  <Centroid res>  (340) 
nan

>  <ConformerSites upload name>  (340) 
nan

>  <energy_score>  (340) 
-21.01111

>  <original SMILES>  (340) 
O=Cc1ccc(NC(=O)[C@@H]2C[C@@H]2F)cc1

>  <exports>  (340) 
nan

>  <CrystalformSites upload name>  (340) 
nan

>  <name>  (340) 
PLFQWQITVHURQD-ZJUUUORDSA-N

>  <HIPPO ID>  (340) 
168631

$$$$
PLFQWQITVHURQD-UWVGGRQHSA-N
     RDKit          3D

 15 16  0  0  0  0  0  0  0  0999 V2000
   11.7901    9.3573   21.5805 O   0  0  0  0  0  0  0  0  0  0  0  0
   11.6535   10.3989   22.2076 C   0  0  0  0  0  0  0  0  0  0  0  0
   10.6383   10.5398   23.2579 C   0  0  0  0  0  0  0  0  0  0  0  0
   10.5610   11.7292   23.9792 C   0  0  0  0  0  0  0  0  0  0  0  0
    9.5269   11.9198   24.8985 C   0  0  0  0  0  0  0  0  0  0  0  0
    8.5602   10.9327   25.0748 C   0  0  0  0  0  0  0  0  0  0  0  0
    7.4225   11.0905   25.8799 N   0  0  0  0  0  0  0  0  0  0  0  0
    7.1659   12.1016   26.7727 C   0  0  0  0  0  0  0  0  0  0  0  0
    7.9487   12.9359   27.2022 O   0  0  0  0  0  0  0  0  0  0  0  0
    5.7685   12.0725   27.2636 C   0  0  1  0  0  0  0  0  0  0  0  0
    5.3180   10.9606   28.1880 C   0  0  0  0  0  0  0  0  0  0  0  0
    5.4808   12.3529   28.7060 C   0  0  2  0  0  0  0  0  0  0  0  0
    4.3199   13.0461   28.9962 F   0  0  0  0  0  0  0  0  0  0  0  0
    8.6732    9.7330   24.3689 C   0  0  0  0  0  0  0  0  0  0  0  0
    9.7160    9.5225   23.4721 C   0  0  0  0  0  0  0  0  0  0  0  0
  1  2  2  0
  2  3  1  0
  3  4  2  0
  4  5  1  0
  5  6  2  0
  6  7  1  0
  7  8  1  0
  8  9  2  0
 10  8  1  1
 10 11  1  0
 11 12  1  0
 12 13  1  6
  6 14  1  0
 14 15  2  0
 15  3  1  0
 12 10  1  0
M  END
>  <Crystalforms alias>  (341) 
nan

>  <original ID>  (341) 
PLFQWQITVHURQD-UWVGGRQHSA-N

>  <alias>  (341) 
None

>  <distance_score>  (341) 
0.407142

>  <CanonSites upload name>  (341) 
nan

>  <CanonSites alias>  (341) 
nan

>  <ConformerSites alias>  (341) 
nan

>  <observation_longname>  (341) 
nan

>  <CrystalformSites alias>  (341) 
nan

>  <tags>  (341) 
[]

>  <ref_mols>  (341) 
A1776a

>  <ref_pdb>  (341) 
A1776a

>  <Quatassemblies upload name>  (341) 
nan

>  <inchikey>  (341) 
PLFQWQITVHURQD-UWVGGRQHSA-N

>  <Experiment code>  (341) 
nan

>  <Quatassemblies alias>  (341) 
nan

>  <Crystalforms upload name>  (341) 
nan

>  <Centroid res>  (341) 
nan

>  <ConformerSites upload name>  (341) 
nan

>  <energy_score>  (341) 
-9.8514

>  <original SMILES>  (341) 
O=Cc1ccc(NC(=O)[C@H]2C[C@@H]2F)cc1

>  <exports>  (341) 
nan

>  <CrystalformSites upload name>  (341) 
nan

>  <name>  (341) 
PLFQWQITVHURQD-UWVGGRQHSA-N

>  <HIPPO ID>  (341) 
168632

$$$$
PLFQWQITVHURQD-NXEZZACHSA-N
     RDKit          3D

 15 16  0  0  0  0  0  0  0  0999 V2000
   11.8210    9.3804   21.5572 O   0  0  0  0  0  0  0  0  0  0  0  0
   11.6808   10.4166   22.1926 C   0  0  0  0  0  0  0  0  0  0  0  0
   10.6644   10.5429   23.2431 C   0  0  0  0  0  0  0  0  0  0  0  0
    9.7401    9.5233   23.4298 C   0  0  0  0  0  0  0  0  0  0  0  0
    8.6879    9.7229   24.3153 C   0  0  0  0  0  0  0  0  0  0  0  0
    8.5687   10.9114   25.0392 C   0  0  0  0  0  0  0  0  0  0  0  0
    7.4123   11.0571   25.8171 N   0  0  0  0  0  0  0  0  0  0  0  0
    7.1442   12.0234   26.7541 C   0  0  0  0  0  0  0  0  0  0  0  0
    7.9200   12.8446   27.2218 O   0  0  0  0  0  0  0  0  0  0  0  0
    5.7409   11.9897   27.2336 C   0  0  2  0  0  0  0  0  0  0  0  0
    5.4469   11.7151   28.6922 C   0  0  0  0  0  0  0  0  0  0  0  0
    5.0978   10.6998   27.6570 C   0  0  1  0  0  0  0  0  0  0  0  0
    3.7589   10.5384   27.3519 F   0  0  0  0  0  0  0  0  0  0  0  0
    9.5426   11.8960   24.9012 C   0  0  0  0  0  0  0  0  0  0  0  0
   10.5852   11.7182   23.9885 C   0  0  0  0  0  0  0  0  0  0  0  0
  1  2  2  0
  2  3  1  0
  3  4  2  0
  4  5  1  0
  5  6  2  0
  6  7  1  0
  7  8  1  0
  8  9  2  0
 10  8  1  1
 10 11  1  0
 11 12  1  0
 12 13  1  6
  6 14  1  0
 14 15  2  0
 15  3  1  0
 12 10  1  0
M  END
>  <Crystalforms alias>  (342) 
nan

>  <original ID>  (342) 
PLFQWQITVHURQD-NXEZZACHSA-N

>  <alias>  (342) 
None

>  <distance_score>  (342) 
0.385856

>  <CanonSites upload name>  (342) 
nan

>  <CanonSites alias>  (342) 
nan

>  <ConformerSites alias>  (342) 
nan

>  <observation_longname>  (342) 
nan

>  <CrystalformSites alias>  (342) 
nan

>  <tags>  (342) 
[]

>  <ref_mols>  (342) 
A1776a

>  <ref_pdb>  (342) 
A1776a

>  <Quatassemblies upload name>  (342) 
nan

>  <inchikey>  (342) 
PLFQWQITVHURQD-NXEZZACHSA-N

>  <Experiment code>  (342) 
nan

>  <Quatassemblies alias>  (342) 
nan

>  <Crystalforms upload name>  (342) 
nan

>  <Centroid res>  (342) 
nan

>  <ConformerSites upload name>  (342) 
nan

>  <energy_score>  (342) 
-11.448083

>  <original SMILES>  (342) 
O=Cc1ccc(NC(=O)[C@@H]2C[C@H]2F)cc1

>  <exports>  (342) 
nan

>  <CrystalformSites upload name>  (342) 
nan

>  <name>  (342) 
PLFQWQITVHURQD-NXEZZACHSA-N

>  <HIPPO ID>  (342) 
168633

$$$$
PLFQWQITVHURQD-VHSXEESVSA-N
     RDKit          3D

 15 16  0  0  0  0  0  0  0  0999 V2000
   11.7869    9.3571   21.5869 O   0  0  0  0  0  0  0  0  0  0  0  0
   11.6488   10.4038   22.2052 C   0  0  0  0  0  0  0  0  0  0  0  0
   10.6322   10.5518   23.2534 C   0  0  0  0  0  0  0  0  0  0  0  0
    9.7290    9.5237   23.4961 C   0  0  0  0  0  0  0  0  0  0  0  0
    8.6933    9.7319   24.4024 C   0  0  0  0  0  0  0  0  0  0  0  0
    8.5662   10.9428   25.0882 C   0  0  0  0  0  0  0  0  0  0  0  0
    7.4430   11.0870   25.9187 N   0  0  0  0  0  0  0  0  0  0  0  0
    7.1581   12.1331   26.7666 C   0  0  0  0  0  0  0  0  0  0  0  0
    7.9180   13.0212   27.1221 O   0  0  0  0  0  0  0  0  0  0  0  0
    5.7752   12.0478   27.3045 C   0  0  1  0  0  0  0  0  0  0  0  0
    5.5625   11.4620   28.6843 C   0  0  0  0  0  0  0  0  0  0  0  0
    5.2822   12.9067   28.4273 C   0  0  1  0  0  0  0  0  0  0  0  0
    6.1276   13.8292   29.0124 F   0  0  0  0  0  0  0  0  0  0  0  0
    9.5080   11.9462   24.8732 C   0  0  0  0  0  0  0  0  0  0  0  0
   10.5368   11.7557   23.9476 C   0  0  0  0  0  0  0  0  0  0  0  0
  1  2  2  0
  2  3  1  0
  3  4  2  0
  4  5  1  0
  5  6  2  0
  6  7  1  0
  7  8  1  0
  8  9  2  0
 10  8  1  1
 10 11  1  0
 11 12  1  0
 12 13  1  1
  6 14  1  0
 14 15  2  0
 15  3  1  0
 12 10  1  0
M  END
>  <Crystalforms alias>  (343) 
nan

>  <original ID>  (343) 
PLFQWQITVHURQD-VHSXEESVSA-N

>  <alias>  (343) 
None

>  <distance_score>  (343) 
0.417547

>  <CanonSites upload name>  (343) 
nan

>  <CanonSites alias>  (343) 
nan

>  <ConformerSites alias>  (343) 
nan

>  <observation_longname>  (343) 
nan

>  <CrystalformSites alias>  (343) 
nan

>  <tags>  (343) 
[]

>  <ref_mols>  (343) 
A1776a

>  <ref_pdb>  (343) 
A1776a

>  <Quatassemblies upload name>  (343) 
nan

>  <inchikey>  (343) 
PLFQWQITVHURQD-VHSXEESVSA-N

>  <Experiment code>  (343) 
nan

>  <Quatassemblies alias>  (343) 
nan

>  <Crystalforms upload name>  (343) 
nan

>  <Centroid res>  (343) 
nan

>  <ConformerSites upload name>  (343) 
nan

>  <energy_score>  (343) 
-9.489582

>  <original SMILES>  (343) 
O=Cc1ccc(NC(=O)[C@H]2C[C@H]2F)cc1

>  <exports>  (343) 
nan

>  <CrystalformSites upload name>  (343) 
nan

>  <name>  (343) 
PLFQWQITVHURQD-VHSXEESVSA-N

>  <HIPPO ID>  (343) 
168634

$$$$
VCGFBWGRSORBBA-MNOVXSKESA-N
     RDKit          3D

 16 17  0  0  0  0  0  0  0  0999 V2000
   12.4264   12.0262   21.9230 C   0  0  0  0  0  0  0  0  0  0  0  0
   11.6864   10.7389   22.2464 C   0  0  0  0  0  0  0  0  0  0  0  0
   11.8900    9.6888   21.6390 O   0  0  0  0  0  0  0  0  0  0  0  0
   10.6386   10.7811   23.2950 C   0  0  0  0  0  0  0  0  0  0  0  0
    9.7985    9.6849   23.4785 C   0  0  0  0  0  0  0  0  0  0  0  0
    8.7342    9.7754   24.3771 C   0  0  0  0  0  0  0  0  0  0  0  0
    8.5181   10.9382   25.1207 C   0  0  0  0  0  0  0  0  0  0  0  0
    7.3960   10.9805   25.9601 N   0  0  0  0  0  0  0  0  0  0  0  0
    7.0923   11.9458   26.8915 C   0  0  0  0  0  0  0  0  0  0  0  0
    7.8130   12.8604   27.2688 O   0  0  0  0  0  0  0  0  0  0  0  0
    5.7652   11.8053   27.5442 C   0  0  2  0  0  0  0  0  0  0  0  0
    5.6099   10.7741   28.6440 C   0  0  0  0  0  0  0  0  0  0  0  0
    4.8412   10.6421   27.3718 C   0  0  2  0  0  0  0  0  0  0  0  0
    5.2048    9.6286   26.5045 F   0  0  0  0  0  0  0  0  0  0  0  0
    9.3883   12.0086   24.9674 C   0  0  0  0  0  0  0  0  0  0  0  0
   10.4354   11.9304   24.0541 C   0  0  0  0  0  0  0  0  0  0  0  0
  1  2  1  0
  2  3  2  0
  2  4  1  0
  4  5  2  0
  5  6  1  0
  6  7  2  0
  7  8  1  0
  8  9  1  0
  9 10  2  0
 11  9  1  6
 11 12  1  0
 12 13  1  0
 13 14  1  6
  7 15  1  0
 15 16  2  0
 16  4  1  0
 13 11  1  0
M  END
>  <Crystalforms alias>  (344) 
nan

>  <original ID>  (344) 
VCGFBWGRSORBBA-MNOVXSKESA-N

>  <alias>  (344) 
None

>  <distance_score>  (344) 
0.561535

>  <CanonSites upload name>  (344) 
nan

>  <CanonSites alias>  (344) 
nan

>  <ConformerSites alias>  (344) 
nan

>  <observation_longname>  (344) 
nan

>  <CrystalformSites alias>  (344) 
nan

>  <tags>  (344) 
[]

>  <ref_mols>  (344) 
A1776a

>  <ref_pdb>  (344) 
A1776a

>  <Quatassemblies upload name>  (344) 
nan

>  <inchikey>  (344) 
VCGFBWGRSORBBA-MNOVXSKESA-N

>  <Experiment code>  (344) 
nan

>  <Quatassemblies alias>  (344) 
nan

>  <Crystalforms upload name>  (344) 
nan

>  <Centroid res>  (344) 
nan

>  <ConformerSites upload name>  (344) 
nan

>  <energy_score>  (344) 
-18.407417

>  <original SMILES>  (344) 
CC(=O)c1ccc(NC(=O)[C@@H]2C[C@@H]2F)cc1

>  <exports>  (344) 
nan

>  <CrystalformSites upload name>  (344) 
nan

>  <name>  (344) 
VCGFBWGRSORBBA-MNOVXSKESA-N

>  <HIPPO ID>  (344) 
171163

$$$$
VCGFBWGRSORBBA-QWRGUYRKSA-N
     RDKit          3D

 16 17  0  0  0  0  0  0  0  0999 V2000
   12.4401   12.0326   21.9168 C   0  0  0  0  0  0  0  0  0  0  0  0
   11.6839   10.7546   22.2372 C   0  0  0  0  0  0  0  0  0  0  0  0
   11.8852    9.6992   21.6381 O   0  0  0  0  0  0  0  0  0  0  0  0
   10.6322   10.8072   23.2817 C   0  0  0  0  0  0  0  0  0  0  0  0
    9.8448    9.6841   23.5281 C   0  0  0  0  0  0  0  0  0  0  0  0
    8.8029    9.7597   24.4544 C   0  0  0  0  0  0  0  0  0  0  0  0
    8.5587   10.9372   25.1670 C   0  0  0  0  0  0  0  0  0  0  0  0
    7.4826   10.9489   26.0706 N   0  0  0  0  0  0  0  0  0  0  0  0
    7.1473   11.9678   26.9374 C   0  0  0  0  0  0  0  0  0  0  0  0
    7.8304   12.9370   27.2379 O   0  0  0  0  0  0  0  0  0  0  0  0
    5.8317   11.8132   27.6079 C   0  0  1  0  0  0  0  0  0  0  0  0
    4.6567   12.5750   27.0200 C   0  0  0  0  0  0  0  0  0  0  0  0
    4.6844   11.0842   26.9929 C   0  0  2  0  0  0  0  0  0  0  0  0
    3.7895   10.4356   27.8194 F   0  0  0  0  0  0  0  0  0  0  0  0
    9.3572   12.0475   24.9258 C   0  0  0  0  0  0  0  0  0  0  0  0
   10.3801   11.9829   23.9836 C   0  0  0  0  0  0  0  0  0  0  0  0
  1  2  1  0
  2  3  2  0
  2  4  1  0
  4  5  2  0
  5  6  1  0
  6  7  2  0
  7  8  1  0
  8  9  1  0
  9 10  2  0
 11  9  1  6
 11 12  1  0
 12 13  1  0
 13 14  1  1
  7 15  1  0
 15 16  2  0
 16  4  1  0
 13 11  1  0
M  END
>  <Crystalforms alias>  (345) 
nan

>  <original ID>  (345) 
VCGFBWGRSORBBA-QWRGUYRKSA-N

>  <alias>  (345) 
None

>  <distance_score>  (345) 
0.577566

>  <CanonSites upload name>  (345) 
nan

>  <CanonSites alias>  (345) 
nan

>  <ConformerSites alias>  (345) 
nan

>  <observation_longname>  (345) 
nan

>  <CrystalformSites alias>  (345) 
nan

>  <tags>  (345) 
[]

>  <ref_mols>  (345) 
A1776a

>  <ref_pdb>  (345) 
A1776a

>  <Quatassemblies upload name>  (345) 
nan

>  <inchikey>  (345) 
VCGFBWGRSORBBA-QWRGUYRKSA-N

>  <Experiment code>  (345) 
nan

>  <Quatassemblies alias>  (345) 
nan

>  <Crystalforms upload name>  (345) 
nan

>  <Centroid res>  (345) 
nan

>  <ConformerSites upload name>  (345) 
nan

>  <energy_score>  (345) 
-12.377813

>  <original SMILES>  (345) 
CC(=O)c1ccc(NC(=O)[C@H]2C[C@@H]2F)cc1

>  <exports>  (345) 
nan

>  <CrystalformSites upload name>  (345) 
nan

>  <name>  (345) 
VCGFBWGRSORBBA-QWRGUYRKSA-N

>  <HIPPO ID>  (345) 
171164

$$$$
VCGFBWGRSORBBA-GHMZBOCLSA-N
     RDKit          3D

 16 17  0  0  0  0  0  0  0  0999 V2000
   12.4163   12.0275   21.9286 C   0  0  0  0  0  0  0  0  0  0  0  0
   11.6900   10.7320   22.2496 C   0  0  0  0  0  0  0  0  0  0  0  0
   11.8959    9.6873   21.6340 O   0  0  0  0  0  0  0  0  0  0  0  0
   10.6491   10.7593   23.3050 C   0  0  0  0  0  0  0  0  0  0  0  0
   10.4661   11.8881   24.0987 C   0  0  0  0  0  0  0  0  0  0  0  0
    9.4162   11.9589   25.0096 C   0  0  0  0  0  0  0  0  0  0  0  0
    8.5249   10.9007   25.1282 C   0  0  0  0  0  0  0  0  0  0  0  0
    7.3891   10.9452   25.9519 N   0  0  0  0  0  0  0  0  0  0  0  0
    7.0880   11.9123   26.8815 C   0  0  0  0  0  0  0  0  0  0  0  0
    7.8176   12.8018   27.2987 O   0  0  0  0  0  0  0  0  0  0  0  0
    5.7089   11.7875   27.4148 C   0  0  2  0  0  0  0  0  0  0  0  0
    4.6263   12.6833   26.8515 C   0  0  0  0  0  0  0  0  0  0  0  0
    5.1425   12.9079   28.2330 C   0  0  1  0  0  0  0  0  0  0  0  0
    4.2996   12.5732   29.2751 F   0  0  0  0  0  0  0  0  0  0  0  0
    8.7284    9.7541   24.3573 C   0  0  0  0  0  0  0  0  0  0  0  0
    9.7937    9.6711   23.4595 C   0  0  0  0  0  0  0  0  0  0  0  0
  1  2  1  0
  2  3  2  0
  2  4  1  0
  4  5  2  0
  5  6  1  0
  6  7  2  0
  7  8  1  0
  8  9  1  0
  9 10  2  0
 11  9  1  6
 11 12  1  0
 12 13  1  0
 13 14  1  1
  7 15  1  0
 15 16  2  0
 16  4  1  0
 13 11  1  0
M  END
>  <Crystalforms alias>  (346) 
nan

>  <original ID>  (346) 
VCGFBWGRSORBBA-GHMZBOCLSA-N

>  <alias>  (346) 
None

>  <distance_score>  (346) 
0.555214

>  <CanonSites upload name>  (346) 
nan

>  <CanonSites alias>  (346) 
nan

>  <ConformerSites alias>  (346) 
nan

>  <observation_longname>  (346) 
nan

>  <CrystalformSites alias>  (346) 
nan

>  <tags>  (346) 
[]

>  <ref_mols>  (346) 
A1776a

>  <ref_pdb>  (346) 
A1776a

>  <Quatassemblies upload name>  (346) 
nan

>  <inchikey>  (346) 
VCGFBWGRSORBBA-GHMZBOCLSA-N

>  <Experiment code>  (346) 
nan

>  <Quatassemblies alias>  (346) 
nan

>  <Crystalforms upload name>  (346) 
nan

>  <Centroid res>  (346) 
nan

>  <ConformerSites upload name>  (346) 
nan

>  <energy_score>  (346) 
-14.10916

>  <original SMILES>  (346) 
CC(=O)c1ccc(NC(=O)[C@@H]2C[C@H]2F)cc1

>  <exports>  (346) 
nan

>  <CrystalformSites upload name>  (346) 
nan

>  <name>  (346) 
VCGFBWGRSORBBA-GHMZBOCLSA-N

>  <HIPPO ID>  (346) 
171165

$$$$
VCGFBWGRSORBBA-WDEREUQCSA-N
     RDKit          3D

 16 17  0  0  0  0  0  0  0  0999 V2000
   12.3958   12.0129   21.9501 C   0  0  0  0  0  0  0  0  0  0  0  0
   11.6318   10.7400   22.2774 C   0  0  0  0  0  0  0  0  0  0  0  0
   11.8297    9.6800   21.6855 O   0  0  0  0  0  0  0  0  0  0  0  0
   10.5740   10.8102   23.3170 C   0  0  0  0  0  0  0  0  0  0  0  0
   10.3531   11.9877   24.0259 C   0  0  0  0  0  0  0  0  0  0  0  0
    9.3250   12.0799   24.9601 C   0  0  0  0  0  0  0  0  0  0  0  0
    8.4872   10.9969   25.1897 C   0  0  0  0  0  0  0  0  0  0  0  0
    7.4214   11.0356   26.1050 N   0  0  0  0  0  0  0  0  0  0  0  0
    7.1746   12.0126   27.0471 C   0  0  0  0  0  0  0  0  0  0  0  0
    7.8829   12.9775   27.3053 O   0  0  0  0  0  0  0  0  0  0  0  0
    5.9590   11.8257   27.8863 C   0  0  1  0  0  0  0  0  0  0  0  0
    4.5894   11.8315   27.2506 C   0  0  0  0  0  0  0  0  0  0  0  0
    5.1187   10.5877   27.8858 C   0  0  1  0  0  0  0  0  0  0  0  0
    5.4918    9.5489   27.0577 F   0  0  0  0  0  0  0  0  0  0  0  0
    8.6989    9.8170   24.4705 C   0  0  0  0  0  0  0  0  0  0  0  0
    9.7479    9.7120   23.5513 C   0  0  0  0  0  0  0  0  0  0  0  0
  1  2  1  0
  2  3  2  0
  2  4  1  0
  4  5  2  0
  5  6  1  0
  6  7  2  0
  7  8  1  0
  8  9  1  0
  9 10  2  0
 11  9  1  6
 11 12  1  0
 12 13  1  0
 13 14  1  6
  7 15  1  0
 15 16  2  0
 16  4  1  0
 13 11  1  0
M  END
>  <Crystalforms alias>  (347) 
nan

>  <original ID>  (347) 
VCGFBWGRSORBBA-WDEREUQCSA-N

>  <alias>  (347) 
None

>  <distance_score>  (347) 
0.586131

>  <CanonSites upload name>  (347) 
nan

>  <CanonSites alias>  (347) 
nan

>  <ConformerSites alias>  (347) 
nan

>  <observation_longname>  (347) 
nan

>  <CrystalformSites alias>  (347) 
nan

>  <tags>  (347) 
[]

>  <ref_mols>  (347) 
A1776a

>  <ref_pdb>  (347) 
A1776a

>  <Quatassemblies upload name>  (347) 
nan

>  <inchikey>  (347) 
VCGFBWGRSORBBA-WDEREUQCSA-N

>  <Experiment code>  (347) 
nan

>  <Quatassemblies alias>  (347) 
nan

>  <Crystalforms upload name>  (347) 
nan

>  <Centroid res>  (347) 
nan

>  <ConformerSites upload name>  (347) 
nan

>  <energy_score>  (347) 
-15.390974

>  <original SMILES>  (347) 
CC(=O)c1ccc(NC(=O)[C@H]2C[C@H]2F)cc1

>  <exports>  (347) 
nan

>  <CrystalformSites upload name>  (347) 
nan

>  <name>  (347) 
VCGFBWGRSORBBA-WDEREUQCSA-N

>  <HIPPO ID>  (347) 
171166

$$$$
HSBHEPXJOXXWIV-BDAKNGLRSA-N
     RDKit          3D

 16 17  0  0  0  0  0  0  0  0999 V2000
   12.4702   11.5342   21.9044 N   0  0  0  0  0  0  0  0  0  0  0  0
   11.6585   10.4636   22.1703 C   0  0  0  0  0  0  0  0  0  0  0  0
   11.7605    9.4286   21.5255 O   0  0  0  0  0  0  0  0  0  0  0  0
   10.6476   10.6123   23.2409 C   0  0  0  0  0  0  0  0  0  0  0  0
   10.4625   11.8071   23.9406 C   0  0  0  0  0  0  0  0  0  0  0  0
    9.4311   11.9296   24.8760 C   0  0  0  0  0  0  0  0  0  0  0  0
    8.5569   10.8696   25.0902 C   0  0  0  0  0  0  0  0  0  0  0  0
    7.4510   10.9232   25.9519 N   0  0  0  0  0  0  0  0  0  0  0  0
    7.1577   11.8976   26.8779 C   0  0  0  0  0  0  0  0  0  0  0  0
    7.8615   12.8462   27.1939 O   0  0  0  0  0  0  0  0  0  0  0  0
    5.8432   11.6633   27.5381 C   0  0  2  0  0  0  0  0  0  0  0  0
    4.7291   12.6570   27.3012 C   0  0  0  0  0  0  0  0  0  0  0  0
    5.3406   12.5220   28.6581 C   0  0  2  0  0  0  0  0  0  0  0  0
    6.1194   13.5636   29.1214 F   0  0  0  0  0  0  0  0  0  0  0  0
    8.7475    9.6794   24.3874 C   0  0  0  0  0  0  0  0  0  0  0  0
    9.7947    9.5381   23.4825 C   0  0  0  0  0  0  0  0  0  0  0  0
  1  2  1  0
  2  3  2  0
  2  4  1  0
  4  5  2  0
  5  6  1  0
  6  7  2  0
  7  8  1  0
  8  9  1  0
  9 10  2  0
 11  9  1  6
 11 12  1  0
 12 13  1  0
 13 14  1  6
  7 15  1  0
 15 16  2  0
 16  4  1  0
 13 11  1  0
M  END
>  <Crystalforms alias>  (348) 
nan

>  <original ID>  (348) 
HSBHEPXJOXXWIV-BDAKNGLRSA-N

>  <alias>  (348) 
None

>  <distance_score>  (348) 
0.469749

>  <CanonSites upload name>  (348) 
nan

>  <CanonSites alias>  (348) 
nan

>  <ConformerSites alias>  (348) 
nan

>  <observation_longname>  (348) 
nan

>  <CrystalformSites alias>  (348) 
nan

>  <tags>  (348) 
[]

>  <ref_mols>  (348) 
A1776a

>  <ref_pdb>  (348) 
A1776a

>  <Quatassemblies upload name>  (348) 
nan

>  <inchikey>  (348) 
HSBHEPXJOXXWIV-BDAKNGLRSA-N

>  <Experiment code>  (348) 
nan

>  <Quatassemblies alias>  (348) 
nan

>  <Crystalforms upload name>  (348) 
nan

>  <Centroid res>  (348) 
nan

>  <ConformerSites upload name>  (348) 
nan

>  <energy_score>  (348) 
-22.915562

>  <original SMILES>  (348) 
NC(=O)c1ccc(NC(=O)[C@@H]2C[C@@H]2F)cc1

>  <exports>  (348) 
nan

>  <CrystalformSites upload name>  (348) 
nan

>  <name>  (348) 
HSBHEPXJOXXWIV-BDAKNGLRSA-N

>  <HIPPO ID>  (348) 
171187

$$$$
HSBHEPXJOXXWIV-IUCAKERBSA-N
     RDKit          3D

 16 17  0  0  0  0  0  0  0  0999 V2000
   12.4501   11.4772   21.9045 N   0  0  0  0  0  0  0  0  0  0  0  0
   11.6278   10.4213   22.1947 C   0  0  0  0  0  0  0  0  0  0  0  0
   11.7053    9.3812   21.5556 O   0  0  0  0  0  0  0  0  0  0  0  0
   10.6314   10.5975   23.2760 C   0  0  0  0  0  0  0  0  0  0  0  0
   10.4903   11.7995   23.9726 C   0  0  0  0  0  0  0  0  0  0  0  0
    9.4571   11.9663   24.8976 C   0  0  0  0  0  0  0  0  0  0  0  0
    8.5356   10.9455   25.1059 C   0  0  0  0  0  0  0  0  0  0  0  0
    7.4003   11.0819   25.9185 N   0  0  0  0  0  0  0  0  0  0  0  0
    7.1241   12.1081   26.7896 C   0  0  0  0  0  0  0  0  0  0  0  0
    7.9027   12.9498   27.2155 O   0  0  0  0  0  0  0  0  0  0  0  0
    5.7258   12.0653   27.2803 C   0  0  1  0  0  0  0  0  0  0  0  0
    5.4183   11.3656   28.5860 C   0  0  0  0  0  0  0  0  0  0  0  0
    5.3248   12.8540   28.4880 C   0  0  2  0  0  0  0  0  0  0  0  0
    4.0539   13.4006   28.4865 F   0  0  0  0  0  0  0  0  0  0  0  0
    8.6906    9.7400   24.4211 C   0  0  0  0  0  0  0  0  0  0  0  0
    9.7407    9.5544   23.5245 C   0  0  0  0  0  0  0  0  0  0  0  0
  1  2  1  0
  2  3  2  0
  2  4  1  0
  4  5  2  0
  5  6  1  0
  6  7  2  0
  7  8  1  0
  8  9  1  0
  9 10  2  0
 11  9  1  1
 11 12  1  0
 12 13  1  0
 13 14  1  6
  7 15  1  0
 15 16  2  0
 16  4  1  0
 13 11  1  0
M  END
>  <Crystalforms alias>  (349) 
nan

>  <original ID>  (349) 
HSBHEPXJOXXWIV-IUCAKERBSA-N

>  <alias>  (349) 
None

>  <distance_score>  (349) 
0.464484

>  <CanonSites upload name>  (349) 
nan

>  <CanonSites alias>  (349) 
nan

>  <ConformerSites alias>  (349) 
nan

>  <observation_longname>  (349) 
nan

>  <CrystalformSites alias>  (349) 
nan

>  <tags>  (349) 
[]

>  <ref_mols>  (349) 
A1776a

>  <ref_pdb>  (349) 
A1776a

>  <Quatassemblies upload name>  (349) 
nan

>  <inchikey>  (349) 
HSBHEPXJOXXWIV-IUCAKERBSA-N

>  <Experiment code>  (349) 
nan

>  <Quatassemblies alias>  (349) 
nan

>  <Crystalforms upload name>  (349) 
nan

>  <Centroid res>  (349) 
nan

>  <ConformerSites upload name>  (349) 
nan

>  <energy_score>  (349) 
-38.817666

>  <original SMILES>  (349) 
NC(=O)c1ccc(NC(=O)[C@H]2C[C@@H]2F)cc1

>  <exports>  (349) 
nan

>  <CrystalformSites upload name>  (349) 
nan

>  <name>  (349) 
HSBHEPXJOXXWIV-IUCAKERBSA-N

>  <HIPPO ID>  (349) 
171188

$$$$
HSBHEPXJOXXWIV-RKDXNWHRSA-N
     RDKit          3D

 16 17  0  0  0  0  0  0  0  0999 V2000
   12.4546   11.4739   21.8950 N   0  0  0  0  0  0  0  0  0  0  0  0
   11.6212   10.4265   22.1839 C   0  0  0  0  0  0  0  0  0  0  0  0
   11.7009    9.3782   21.5591 O   0  0  0  0  0  0  0  0  0  0  0  0
   10.6174   10.6183   23.2551 C   0  0  0  0  0  0  0  0  0  0  0  0
    9.7627    9.5595   23.5577 C   0  0  0  0  0  0  0  0  0  0  0  0
    8.7347    9.7400   24.4819 C   0  0  0  0  0  0  0  0  0  0  0  0
    8.5661   10.9590   25.1414 C   0  0  0  0  0  0  0  0  0  0  0  0
    7.4943   11.0595   26.0457 N   0  0  0  0  0  0  0  0  0  0  0  0
    7.2176   12.1128   26.8865 C   0  0  0  0  0  0  0  0  0  0  0  0
    7.9331   13.0742   27.1281 O   0  0  0  0  0  0  0  0  0  0  0  0
    5.9380   12.0054   27.6290 C   0  0  2  0  0  0  0  0  0  0  0  0
    4.7328   11.2229   27.1745 C   0  0  0  0  0  0  0  0  0  0  0  0
    4.7484   12.7106   27.0426 C   0  0  1  0  0  0  0  0  0  0  0  0
    3.9433   13.4243   27.9121 F   0  0  0  0  0  0  0  0  0  0  0  0
    9.4310   12.0087   24.8479 C   0  0  0  0  0  0  0  0  0  0  0  0
   10.4430   11.8443   23.8991 C   0  0  0  0  0  0  0  0  0  0  0  0
  1  2  1  0
  2  3  2  0
  2  4  1  0
  4  5  2  0
  5  6  1  0
  6  7  2  0
  7  8  1  0
  8  9  1  0
  9 10  2  0
 11  9  1  6
 11 12  1  0
 12 13  1  0
 13 14  1  1
  7 15  1  0
 15 16  2  0
 16  4  1  0
 13 11  1  0
M  END
>  <Crystalforms alias>  (350) 
nan

>  <original ID>  (350) 
HSBHEPXJOXXWIV-RKDXNWHRSA-N

>  <alias>  (350) 
None

>  <distance_score>  (350) 
0.497869

>  <CanonSites upload name>  (350) 
nan

>  <CanonSites alias>  (350) 
nan

>  <ConformerSites alias>  (350) 
nan

>  <observation_longname>  (350) 
nan

>  <CrystalformSites alias>  (350) 
nan

>  <tags>  (350) 
[]

>  <ref_mols>  (350) 
A1776a

>  <ref_pdb>  (350) 
A1776a

>  <Quatassemblies upload name>  (350) 
nan

>  <inchikey>  (350) 
HSBHEPXJOXXWIV-RKDXNWHRSA-N

>  <Experiment code>  (350) 
nan

>  <Quatassemblies alias>  (350) 
nan

>  <Crystalforms upload name>  (350) 
nan

>  <Centroid res>  (350) 
nan

>  <ConformerSites upload name>  (350) 
nan

>  <energy_score>  (350) 
-28.301175

>  <original SMILES>  (350) 
NC(=O)c1ccc(NC(=O)[C@@H]2C[C@H]2F)cc1

>  <exports>  (350) 
nan

>  <CrystalformSites upload name>  (350) 
nan

>  <name>  (350) 
HSBHEPXJOXXWIV-RKDXNWHRSA-N

>  <HIPPO ID>  (350) 
171189

$$$$
HSBHEPXJOXXWIV-DTWKUNHWSA-N
     RDKit          3D

 16 17  0  0  0  0  0  0  0  0999 V2000
   12.4428   11.4829   21.9125 N   0  0  0  0  0  0  0  0  0  0  0  0
   11.6152   10.4298   22.1981 C   0  0  0  0  0  0  0  0  0  0  0  0
   11.6962    9.3880   21.5621 O   0  0  0  0  0  0  0  0  0  0  0  0
   10.6138   10.6105   23.2742 C   0  0  0  0  0  0  0  0  0  0  0  0
   10.4727   11.8142   23.9679 C   0  0  0  0  0  0  0  0  0  0  0  0
    9.4508   11.9777   24.9067 C   0  0  0  0  0  0  0  0  0  0  0  0
    8.5403   10.9517   25.1338 C   0  0  0  0  0  0  0  0  0  0  0  0
    7.4440   11.0577   26.0030 N   0  0  0  0  0  0  0  0  0  0  0  0
    7.1783   12.0626   26.9013 C   0  0  0  0  0  0  0  0  0  0  0  0
    7.9110   12.9949   27.2034 O   0  0  0  0  0  0  0  0  0  0  0  0
    5.8898   11.9346   27.6343 C   0  0  1  0  0  0  0  0  0  0  0  0
    4.6159   12.4107   26.9708 C   0  0  0  0  0  0  0  0  0  0  0  0
    4.8059   10.9621   27.2864 C   0  0  1  0  0  0  0  0  0  0  0  0
    5.0166   10.0846   26.2382 F   0  0  0  0  0  0  0  0  0  0  0  0
    8.6853    9.7506   24.4377 C   0  0  0  0  0  0  0  0  0  0  0  0
    9.7244    9.5678   23.5274 C   0  0  0  0  0  0  0  0  0  0  0  0
  1  2  1  0
  2  3  2  0
  2  4  1  0
  4  5  2  0
  5  6  1  0
  6  7  2  0
  7  8  1  0
  8  9  1  0
  9 10  2  0
 11  9  1  6
 11 12  1  0
 12 13  1  0
 13 14  1  6
  7 15  1  0
 15 16  2  0
 16  4  1  0
 13 11  1  0
M  END
>  <Crystalforms alias>  (351) 
nan

>  <original ID>  (351) 
HSBHEPXJOXXWIV-DTWKUNHWSA-N

>  <alias>  (351) 
None

>  <distance_score>  (351) 
0.492567

>  <CanonSites upload name>  (351) 
nan

>  <CanonSites alias>  (351) 
nan

>  <ConformerSites alias>  (351) 
nan

>  <observation_longname>  (351) 
nan

>  <CrystalformSites alias>  (351) 
nan

>  <tags>  (351) 
[]

>  <ref_mols>  (351) 
A1776a

>  <ref_pdb>  (351) 
A1776a

>  <Quatassemblies upload name>  (351) 
nan

>  <inchikey>  (351) 
HSBHEPXJOXXWIV-DTWKUNHWSA-N

>  <Experiment code>  (351) 
nan

>  <Quatassemblies alias>  (351) 
nan

>  <Crystalforms upload name>  (351) 
nan

>  <Centroid res>  (351) 
nan

>  <ConformerSites upload name>  (351) 
nan

>  <energy_score>  (351) 
-23.952955

>  <original SMILES>  (351) 
NC(=O)c1ccc(NC(=O)[C@H]2C[C@H]2F)cc1

>  <exports>  (351) 
nan

>  <CrystalformSites upload name>  (351) 
nan

>  <name>  (351) 
HSBHEPXJOXXWIV-DTWKUNHWSA-N

>  <HIPPO ID>  (351) 
171190

$$$$
XGEHJBAORVMZNC-UHFFFAOYSA-N
     RDKit          3D

 21 23  0  0  0  0  0  0  0  0999 V2000
   15.5345   12.9462   23.1210 C   0  0  0  0  0  0  0  0  0  0  0  0
   15.1076   12.5563   21.6172 C   0  0  0  0  0  0  0  0  0  0  0  0
   15.8097   12.6750   20.6188 O   0  0  0  0  0  0  0  0  0  0  0  0
   13.8134   12.1496   21.4551 N   0  0  0  0  0  0  0  0  0  0  0  0
   12.7366   12.9595   21.8220 C   0  0  0  0  0  0  0  0  0  0  0  0
   11.7531   12.2742   22.6704 C   0  0  0  0  0  0  0  0  0  0  0  0
   11.3666   10.9162   22.2154 C   0  0  0  0  0  0  0  0  0  0  0  0
   10.9886   10.0593   23.3872 C   0  0  0  0  0  0  0  0  0  0  0  0
   11.3701    8.9016   23.5059 O   0  0  0  0  0  0  0  0  0  0  0  0
    9.9041   10.5939   24.2500 C   0  0  0  0  0  0  0  0  0  0  0  0
    8.8342    9.7293   24.4522 C   0  0  0  0  0  0  0  0  0  0  0  0
    7.7149   10.1768   25.1416 C   0  0  0  0  0  0  0  0  0  0  0  0
    7.6280   11.4971   25.4674 C   0  0  0  0  0  0  0  0  0  0  0  0
    8.6622   12.3752   25.2601 C   0  0  0  0  0  0  0  0  0  0  0  0
    9.8427   11.9117   24.7429 C   0  0  0  0  0  0  0  0  0  0  0  0
    8.2621   13.7395   25.7166 C   0  0  0  0  0  0  0  0  0  0  0  0
    6.8729   13.4578   26.3195 C   0  0  0  0  0  0  0  0  0  0  0  0
    6.1273   14.2178   26.9106 O   0  0  0  0  0  0  0  0  0  0  0  0
    6.5798   12.1268   26.0898 N   0  0  0  0  0  0  0  0  0  0  0  0
   12.3982   10.2546   21.3314 C   0  0  0  0  0  0  0  0  0  0  0  0
   13.4295   11.1201   20.5879 C   0  0  0  0  0  0  0  0  0  0  0  0
  1  2  1  0
  2  3  2  0
  2  4  1  0
  4  5  1  0
  5  6  1  0
  6  7  1  0
  7  8  1  0
  8  9  2  0
  8 10  1  0
 10 11  2  0
 11 12  1  0
 12 13  2  0
 13 14  1  0
 14 15  2  0
 14 16  1  0
 16 17  1  0
 17 18  2  0
 17 19  1  0
  7 20  1  0
 20 21  1  0
 21  4  1  0
 15 10  1  0
 19 13  1  0
M  END
>  <Crystalforms alias>  (352) 
nan

>  <original ID>  (352) 
XGEHJBAORVMZNC-UHFFFAOYSA-N

>  <alias>  (352) 
None

>  <distance_score>  (352) 
1.628018

>  <CanonSites upload name>  (352) 
nan

>  <CanonSites alias>  (352) 
nan

>  <ConformerSites alias>  (352) 
nan

>  <observation_longname>  (352) 
nan

>  <CrystalformSites alias>  (352) 
nan

>  <tags>  (352) 
[]

>  <ref_mols>  (352) 
A1778a

>  <ref_pdb>  (352) 
A1778a

>  <Quatassemblies upload name>  (352) 
nan

>  <inchikey>  (352) 
XGEHJBAORVMZNC-UHFFFAOYSA-N

>  <Experiment code>  (352) 
nan

>  <Quatassemblies alias>  (352) 
nan

>  <Crystalforms upload name>  (352) 
nan

>  <Centroid res>  (352) 
nan

>  <ConformerSites upload name>  (352) 
nan

>  <energy_score>  (352) 
19.768036

>  <original SMILES>  (352) 
CC(=O)N1CCC(C(=O)c2ccc3c(c2)CC(=O)N3)CC1

>  <exports>  (352) 
nan

>  <CrystalformSites upload name>  (352) 
nan

>  <name>  (352) 
XGEHJBAORVMZNC-UHFFFAOYSA-N

>  <HIPPO ID>  (352) 
177866

$$$$
DSWPNAIUGQHHCN-UHFFFAOYSA-N
     RDKit          3D

 22 24  0  0  0  0  0  0  0  0999 V2000
    6.1194   14.1462   26.8032 O   0  0  0  0  0  0  0  0  0  0  0  0
    6.8251   13.4183   26.1285 C   0  0  0  0  0  0  0  0  0  0  0  0
    7.8761   13.8103   25.0766 C   0  0  0  0  0  0  0  0  0  0  0  0
    8.3520   12.4711   24.6216 C   0  0  0  0  0  0  0  0  0  0  0  0
    9.2043   12.1242   23.6054 C   0  0  0  0  0  0  0  0  0  0  0  0
    9.5507   10.7706   23.4301 C   0  0  0  0  0  0  0  0  0  0  0  0
   10.5225   10.2424   22.4400 C   0  0  0  0  0  0  0  0  0  0  0  0
   10.2739    9.1845   21.8706 O   0  0  0  0  0  0  0  0  0  0  0  0
   11.8932   10.8077   22.3830 C   0  0  0  0  0  0  0  0  0  0  0  0
   12.6903   10.4581   21.0987 C   0  0  0  0  0  0  0  0  0  0  0  0
   13.4083   11.5567   20.3052 C   0  0  0  0  0  0  0  0  0  0  0  0
   12.8290   12.7840   20.6857 N   0  0  0  0  0  0  0  0  0  0  0  0
   12.3996   13.6954   19.7138 C   0  0  0  0  0  0  0  0  0  0  0  0
   12.5503   13.4204   18.5225 O   0  0  0  0  0  0  0  0  0  0  0  0
   11.9260   15.1108   20.0364 C   0  0  0  0  0  0  0  0  0  0  0  0
   11.9266   15.9306   18.8590 O   0  0  0  0  0  0  0  0  0  0  0  0
   13.0865   12.9304   22.0866 C   0  0  0  0  0  0  0  0  0  0  0  0
   11.9810   12.2542   22.7842 C   0  0  0  0  0  0  0  0  0  0  0  0
    8.8970    9.7904   24.1723 C   0  0  0  0  0  0  0  0  0  0  0  0
    7.9107   10.1609   25.0714 C   0  0  0  0  0  0  0  0  0  0  0  0
    7.6997   11.4855   25.3190 C   0  0  0  0  0  0  0  0  0  0  0  0
    6.7929   12.0364   26.1922 N   0  0  0  0  0  0  0  0  0  0  0  0
  1  2  2  0
  2  3  1  0
  3  4  1  0
  4  5  2  0
  5  6  1  0
  6  7  1  0
  7  8  2  0
  7  9  1  0
  9 10  1  0
 10 11  1  0
 11 12  1  0
 12 13  1  0
 13 14  2  0
 13 15  1  0
 15 16  1  0
 12 17  1  0
 17 18  1  0
  6 19  2  0
 19 20  1  0
 20 21  2  0
 21 22  1  0
 22  2  1  0
 21  4  1  0
 18  9  1  0
M  END
>  <Crystalforms alias>  (353) 
nan

>  <original ID>  (353) 
DSWPNAIUGQHHCN-UHFFFAOYSA-N

>  <alias>  (353) 
None

>  <distance_score>  (353) 
1.404917

>  <CanonSites upload name>  (353) 
nan

>  <CanonSites alias>  (353) 
nan

>  <ConformerSites alias>  (353) 
nan

>  <observation_longname>  (353) 
nan

>  <CrystalformSites alias>  (353) 
nan

>  <tags>  (353) 
[]

>  <ref_mols>  (353) 
A1778a

>  <ref_pdb>  (353) 
A1778a

>  <Quatassemblies upload name>  (353) 
nan

>  <inchikey>  (353) 
DSWPNAIUGQHHCN-UHFFFAOYSA-N

>  <Experiment code>  (353) 
nan

>  <Quatassemblies alias>  (353) 
nan

>  <Crystalforms upload name>  (353) 
nan

>  <Centroid res>  (353) 
nan

>  <ConformerSites upload name>  (353) 
nan

>  <energy_score>  (353) 
26.241898

>  <original SMILES>  (353) 
O=C1Cc2cc(C(=O)C3CCN(C(=O)CO)CC3)ccc2N1

>  <exports>  (353) 
nan

>  <CrystalformSites upload name>  (353) 
nan

>  <name>  (353) 
DSWPNAIUGQHHCN-UHFFFAOYSA-N

>  <HIPPO ID>  (353) 
178256

$$$$
OCUCCULYOALSBO-UHFFFAOYSA-N
     RDKit          3D

 22 24  0  0  0  0  0  0  0  0999 V2000
   13.5988   12.2543   19.6803 O   0  0  0  0  0  0  0  0  0  0  0  0
   13.3024   11.6702   20.7131 C   0  0  0  0  0  0  0  0  0  0  0  0
   12.5702   12.3401   21.8798 C   0  0  0  0  0  0  0  0  0  0  0  0
   13.1147   13.2167   22.5350 O   0  0  0  0  0  0  0  0  0  0  0  0
   11.2992   11.8647   22.1623 N   0  0  0  0  0  0  0  0  0  0  0  0
   11.1480   10.5174   22.6599 C   0  0  0  0  0  0  0  0  0  0  0  0
   11.1034   10.5637   24.1818 C   0  0  0  0  0  0  0  0  0  0  0  0
   10.0678   11.5734   24.7282 C   0  0  0  0  0  0  0  0  0  0  0  0
    8.7022   10.9585   24.5835 C   0  0  0  0  0  0  0  0  0  0  0  0
    8.5283    9.9849   23.8556 O   0  0  0  0  0  0  0  0  0  0  0  0
    7.5872   11.3930   25.4651 C   0  0  0  0  0  0  0  0  0  0  0  0
    6.6700   10.3862   25.8372 C   0  0  0  0  0  0  0  0  0  0  0  0
    5.6572   10.5709   26.7724 C   0  0  0  0  0  0  0  0  0  0  0  0
    5.5871   11.8080   27.3299 C   0  0  0  0  0  0  0  0  0  0  0  0
    6.4681   12.8254   26.9771 C   0  0  0  0  0  0  0  0  0  0  0  0
    7.4722   12.6525   26.0386 C   0  0  0  0  0  0  0  0  0  0  0  0
    6.1533   14.0180   27.8060 C   0  0  0  0  0  0  0  0  0  0  0  0
    5.0089   13.5451   28.6783 C   0  0  0  0  0  0  0  0  0  0  0  0
    4.4611   14.2108   29.5376 O   0  0  0  0  0  0  0  0  0  0  0  0
    4.7300   12.2376   28.3242 N   0  0  0  0  0  0  0  0  0  0  0  0
   10.2795   12.9366   24.1010 C   0  0  0  0  0  0  0  0  0  0  0  0
   10.2816   12.7985   22.6023 C   0  0  0  0  0  0  0  0  0  0  0  0
  1  2  2  0
  2  3  1  0
  3  4  2  0
  3  5  1  0
  5  6  1  0
  6  7  1  0
  7  8  1  0
  8  9  1  0
  9 10  2  0
  9 11  1  0
 11 12  2  0
 12 13  1  0
 13 14  2  0
 14 15  1  0
 15 16  2  0
 15 17  1  0
 17 18  1  0
 18 19  2  0
 18 20  1  0
  8 21  1  0
 21 22  1  0
 22  5  1  0
 16 11  1  0
 20 14  1  0
M  END
>  <Crystalforms alias>  (354) 
nan

>  <original ID>  (354) 
OCUCCULYOALSBO-UHFFFAOYSA-N

>  <alias>  (354) 
None

>  <distance_score>  (354) 
4.149157

>  <CanonSites upload name>  (354) 
nan

>  <CanonSites alias>  (354) 
nan

>  <ConformerSites alias>  (354) 
nan

>  <observation_longname>  (354) 
nan

>  <CrystalformSites alias>  (354) 
nan

>  <tags>  (354) 
[]

>  <ref_mols>  (354) 
A1778a

>  <ref_pdb>  (354) 
A1778a

>  <Quatassemblies upload name>  (354) 
nan

>  <inchikey>  (354) 
OCUCCULYOALSBO-UHFFFAOYSA-N

>  <Experiment code>  (354) 
nan

>  <Quatassemblies alias>  (354) 
nan

>  <Crystalforms upload name>  (354) 
nan

>  <Centroid res>  (354) 
nan

>  <ConformerSites upload name>  (354) 
nan

>  <energy_score>  (354) 
-14.750782

>  <original SMILES>  (354) 
O=CC(=O)N1CCC(C(=O)c2ccc3c(c2)CC(=O)N3)CC1

>  <exports>  (354) 
nan

>  <CrystalformSites upload name>  (354) 
nan

>  <name>  (354) 
OCUCCULYOALSBO-UHFFFAOYSA-N

>  <HIPPO ID>  (354) 
178258

$$$$
ATAODYLGQUAMPG-UHFFFAOYSA-N
     RDKit          3D

 23 25  0  0  0  0  0  0  0  0999 V2000
    6.2735   14.1201   26.8065 O   0  0  0  0  0  0  0  0  0  0  0  0
    7.0589   13.3804   26.2426 C   0  0  0  0  0  0  0  0  0  0  0  0
    8.4674   13.6914   25.6983 C   0  0  0  0  0  0  0  0  0  0  0  0
    8.9157   12.3328   25.2524 C   0  0  0  0  0  0  0  0  0  0  0  0
   10.1155   11.8784   24.7662 C   0  0  0  0  0  0  0  0  0  0  0  0
   10.1432   10.6135   24.1444 C   0  0  0  0  0  0  0  0  0  0  0  0
   11.1881   10.2393   23.1678 C   0  0  0  0  0  0  0  0  0  0  0  0
   11.3963    9.0621   22.8938 O   0  0  0  0  0  0  0  0  0  0  0  0
   11.9127   11.3687   22.4928 C   0  0  0  0  0  0  0  0  0  0  0  0
   11.0299   12.5099   22.1211 C   0  0  0  0  0  0  0  0  0  0  0  0
   11.8305   13.4509   21.2984 C   0  0  0  0  0  0  0  0  0  0  0  0
   12.5324   13.0135   20.1851 N   0  0  0  0  0  0  0  0  0  0  0  0
   12.5331   13.7928   19.0435 C   0  0  0  0  0  0  0  0  0  0  0  0
   13.0771   13.2009   18.1136 O   0  0  0  0  0  0  0  0  0  0  0  0
   11.7679   15.1578   18.9861 C   0  0  0  0  0  0  0  0  0  0  0  0
   12.4097   16.4145   19.9937 Cl  0  0  0  0  0  0  0  0  0  0  0  0
   11.7655   16.1200   17.5303 Cl  0  0  0  0  0  0  0  0  0  0  0  0
   13.3904   11.8635   20.4336 C   0  0  0  0  0  0  0  0  0  0  0  0
   12.6672   10.8252   21.2692 C   0  0  0  0  0  0  0  0  0  0  0  0
    9.0820    9.7274   24.2905 C   0  0  0  0  0  0  0  0  0  0  0  0
    7.9696   10.1327   25.0074 C   0  0  0  0  0  0  0  0  0  0  0  0
    7.8738   11.4422   25.3859 C   0  0  0  0  0  0  0  0  0  0  0  0
    6.7957   12.0484   25.9826 N   0  0  0  0  0  0  0  0  0  0  0  0
  1  2  2  0
  2  3  1  0
  3  4  1  0
  4  5  2  0
  5  6  1  0
  6  7  1  0
  7  8  2  0
  7  9  1  0
  9 10  1  0
 10 11  1  0
 11 12  1  0
 12 13  1  0
 13 14  2  0
 13 15  1  0
 15 16  1  0
 15 17  1  0
 12 18  1  0
 18 19  1  0
  6 20  2  0
 20 21  1  0
 21 22  2  0
 22 23  1  0
 23  2  1  0
 22  4  1  0
 19  9  1  0
M  END
>  <Crystalforms alias>  (355) 
nan

>  <original ID>  (355) 
ATAODYLGQUAMPG-UHFFFAOYSA-N

>  <alias>  (355) 
None

>  <distance_score>  (355) 
1.203313

>  <CanonSites upload name>  (355) 
nan

>  <CanonSites alias>  (355) 
nan

>  <ConformerSites alias>  (355) 
nan

>  <observation_longname>  (355) 
nan

>  <CrystalformSites alias>  (355) 
nan

>  <tags>  (355) 
[]

>  <ref_mols>  (355) 
A1778a

>  <ref_pdb>  (355) 
A1778a

>  <Quatassemblies upload name>  (355) 
nan

>  <inchikey>  (355) 
ATAODYLGQUAMPG-UHFFFAOYSA-N

>  <Experiment code>  (355) 
nan

>  <Quatassemblies alias>  (355) 
nan

>  <Crystalforms upload name>  (355) 
nan

>  <Centroid res>  (355) 
nan

>  <ConformerSites upload name>  (355) 
nan

>  <energy_score>  (355) 
23.536177

>  <original SMILES>  (355) 
O=C1Cc2cc(C(=O)C3CCN(C(=O)C(Cl)Cl)CC3)ccc2N1

>  <exports>  (355) 
nan

>  <CrystalformSites upload name>  (355) 
nan

>  <name>  (355) 
ATAODYLGQUAMPG-UHFFFAOYSA-N

>  <HIPPO ID>  (355) 
178259

$$$$
ANBAAHVCCNMFEA-UHFFFAOYSA-N
     RDKit          3D

 23 25  0  0  0  0  0  0  0  0999 V2000
   17.8035   11.1186   25.6414 C   0  0  0  0  0  0  0  0  0  0  0  0
   17.3837   12.4593   25.7351 O   0  0  0  0  0  0  0  0  0  0  0  0
   16.0131   12.7583   25.5606 C   0  0  0  0  0  0  0  0  0  0  0  0
   15.4383   13.0732   24.1596 C   0  0  0  0  0  0  0  0  0  0  0  0
   16.1402   13.2122   23.1777 O   0  0  0  0  0  0  0  0  0  0  0  0
   14.0774   13.1572   23.8419 N   0  0  0  0  0  0  0  0  0  0  0  0
   13.7374   12.9209   22.3873 C   0  0  0  0  0  0  0  0  0  0  0  0
   12.7162   11.9606   21.8646 C   0  0  0  0  0  0  0  0  0  0  0  0
   11.5978   11.9709   22.8354 C   0  0  0  0  0  0  0  0  0  0  0  0
   10.7150   10.7750   22.6557 C   0  0  0  0  0  0  0  0  0  0  0  0
   11.0351    9.7204   22.1282 O   0  0  0  0  0  0  0  0  0  0  0  0
    9.4422   10.9678   23.3644 C   0  0  0  0  0  0  0  0  0  0  0  0
    8.9247    9.9066   24.0904 C   0  0  0  0  0  0  0  0  0  0  0  0
    7.9191   10.1825   25.0057 C   0  0  0  0  0  0  0  0  0  0  0  0
    7.5674   11.4853   25.2551 C   0  0  0  0  0  0  0  0  0  0  0  0
    8.0713   12.5258   24.5157 C   0  0  0  0  0  0  0  0  0  0  0  0
    8.9314   12.2769   23.4926 C   0  0  0  0  0  0  0  0  0  0  0  0
    7.5472   13.8222   25.0113 C   0  0  0  0  0  0  0  0  0  0  0  0
    6.6504   13.3650   26.1626 C   0  0  0  0  0  0  0  0  0  0  0  0
    6.0120   14.0695   26.9238 O   0  0  0  0  0  0  0  0  0  0  0  0
    6.6948   11.9754   26.2023 N   0  0  0  0  0  0  0  0  0  0  0  0
   11.9410   12.0484   24.3451 C   0  0  0  0  0  0  0  0  0  0  0  0
   13.0397   12.9895   24.8050 C   0  0  0  0  0  0  0  0  0  0  0  0
  1  2  1  0
  2  3  1  0
  3  4  1  0
  4  5  2  0
  4  6  1  0
  6  7  1  0
  7  8  1  0
  8  9  1  0
  9 10  1  0
 10 11  2  0
 10 12  1  0
 12 13  2  0
 13 14  1  0
 14 15  2  0
 15 16  1  0
 16 17  2  0
 16 18  1  0
 18 19  1  0
 19 20  2  0
 19 21  1  0
  9 22  1  0
 22 23  1  0
 23  6  1  0
 17 12  1  0
 21 15  1  0
M  END
>  <Crystalforms alias>  (356) 
nan

>  <original ID>  (356) 
ANBAAHVCCNMFEA-UHFFFAOYSA-N

>  <alias>  (356) 
None

>  <distance_score>  (356) 
1.485405

>  <CanonSites upload name>  (356) 
nan

>  <CanonSites alias>  (356) 
nan

>  <ConformerSites alias>  (356) 
nan

>  <observation_longname>  (356) 
nan

>  <CrystalformSites alias>  (356) 
nan

>  <tags>  (356) 
[]

>  <ref_mols>  (356) 
A1778a

>  <ref_pdb>  (356) 
A1778a

>  <Quatassemblies upload name>  (356) 
nan

>  <inchikey>  (356) 
ANBAAHVCCNMFEA-UHFFFAOYSA-N

>  <Experiment code>  (356) 
nan

>  <Quatassemblies alias>  (356) 
nan

>  <Crystalforms upload name>  (356) 
nan

>  <Centroid res>  (356) 
nan

>  <ConformerSites upload name>  (356) 
nan

>  <energy_score>  (356) 
2.302695

>  <original SMILES>  (356) 
COCC(=O)N1CCC(C(=O)c2ccc3c(c2)CC(=O)N3)CC1

>  <exports>  (356) 
nan

>  <CrystalformSites upload name>  (356) 
nan

>  <name>  (356) 
ANBAAHVCCNMFEA-UHFFFAOYSA-N

>  <HIPPO ID>  (356) 
178278

$$$$
NJBYUOPISWSFMI-KGLIPLIRSA-N
     RDKit          3D

 24 27  0  0  0  0  0  0  0  0999 V2000
    3.4457   15.6150   24.0981 O   0  0  0  0  0  0  0  0  0  0  0  0
    4.3305   14.8538   24.4335 C   0  0  0  0  0  0  0  0  0  0  0  0
    5.6050   14.5142   23.6583 C   0  0  0  0  0  0  0  0  0  0  0  0
    6.2084   13.4547   24.5320 C   0  0  0  0  0  0  0  0  0  0  0  0
    7.2967   12.6444   24.2922 C   0  0  0  0  0  0  0  0  0  0  0  0
    7.4978   11.5584   25.1449 C   0  0  0  0  0  0  0  0  0  0  0  0
    8.4406   10.4573   24.8348 C   0  0  0  0  0  0  0  0  0  0  0  0
    7.9816    9.3179   24.9069 O   0  0  0  0  0  0  0  0  0  0  0  0
    9.8905   10.6135   24.4725 C   0  0  0  0  0  0  0  0  0  0  0  0
   10.1290    9.6818   23.2673 C   0  0  0  0  0  0  0  0  0  0  0  0
   11.2923   10.0985   22.4201 C   0  0  0  0  0  0  0  0  0  0  0  0
   11.3561   11.5390   22.2426 N   0  0  0  0  0  0  0  0  0  0  0  0
   12.5315   12.1473   21.8952 C   0  0  0  0  0  0  0  0  0  0  0  0
   12.9454   13.1499   22.4653 O   0  0  0  0  0  0  0  0  0  0  0  0
   13.2961   11.5036   20.8194 C   0  0  2  0  0  0  0  0  0  0  0  0
   14.6546   12.0256   20.5255 C   0  0  0  0  0  0  0  0  0  0  0  0
   13.5392   12.2658   19.5569 C   0  0  2  0  0  0  0  0  0  0  0  0
   12.8190   13.4335   19.4068 F   0  0  0  0  0  0  0  0  0  0  0  0
   10.3843   12.3538   22.9120 C   0  0  0  0  0  0  0  0  0  0  0  0
   10.4230   12.0337   24.3688 C   0  0  0  0  0  0  0  0  0  0  0  0
    6.6063   11.3429   26.2227 C   0  0  0  0  0  0  0  0  0  0  0  0
    5.5710   12.2185   26.5173 C   0  0  0  0  0  0  0  0  0  0  0  0
    5.3875   13.2461   25.6364 C   0  0  0  0  0  0  0  0  0  0  0  0
    4.3281   14.1226   25.6075 N   0  0  0  0  0  0  0  0  0  0  0  0
  1  2  2  0
  2  3  1  0
  3  4  1  0
  4  5  2  0
  5  6  1  0
  6  7  1  0
  7  8  2  0
  7  9  1  0
  9 10  1  0
 10 11  1  0
 11 12  1  0
 12 13  1  0
 13 14  2  0
 15 13  1  1
 15 16  1  0
 16 17  1  0
 17 18  1  1
 12 19  1  0
 19 20  1  0
  6 21  2  0
 21 22  1  0
 22 23  2  0
 23 24  1  0
 24  2  1  0
 23  4  1  0
 20  9  1  0
 17 15  1  0
M  END
>  <Crystalforms alias>  (357) 
nan

>  <original ID>  (357) 
NJBYUOPISWSFMI-KGLIPLIRSA-N

>  <alias>  (357) 
None

>  <distance_score>  (357) 
4.202978

>  <CanonSites upload name>  (357) 
nan

>  <CanonSites alias>  (357) 
nan

>  <ConformerSites alias>  (357) 
nan

>  <observation_longname>  (357) 
nan

>  <CrystalformSites alias>  (357) 
nan

>  <tags>  (357) 
[]

>  <ref_mols>  (357) 
A1778a

>  <ref_pdb>  (357) 
A1778a

>  <Quatassemblies upload name>  (357) 
nan

>  <inchikey>  (357) 
NJBYUOPISWSFMI-KGLIPLIRSA-N

>  <Experiment code>  (357) 
nan

>  <Quatassemblies alias>  (357) 
nan

>  <Crystalforms upload name>  (357) 
nan

>  <Centroid res>  (357) 
nan

>  <ConformerSites upload name>  (357) 
nan

>  <energy_score>  (357) 
-15.468782

>  <original SMILES>  (357) 
O=C1Cc2cc(C(=O)C3CCN(C(=O)[C@@H]4C[C@@H]4F)CC3)ccc2N1

>  <exports>  (357) 
nan

>  <CrystalformSites upload name>  (357) 
nan

>  <name>  (357) 
NJBYUOPISWSFMI-KGLIPLIRSA-N

>  <HIPPO ID>  (357) 
178331

$$$$
DSWPNAIUGQHHCN-UHFFFAOYSA-N
     RDKit          3D

 22 24  0  0  0  0  0  0  0  0999 V2000
    6.0660   14.4406   27.2571 O   0  0  0  0  0  0  0  0  0  0  0  0
    6.7250   13.6539   26.6016 C   0  0  0  0  0  0  0  0  0  0  0  0
    8.0977   13.8442   25.9141 C   0  0  0  0  0  0  0  0  0  0  0  0
    8.3762   12.4667   25.4287 C   0  0  0  0  0  0  0  0  0  0  0  0
    9.4958   11.9428   24.8409 C   0  0  0  0  0  0  0  0  0  0  0  0
    9.4133   10.6353   24.3724 C   0  0  0  0  0  0  0  0  0  0  0  0
   10.4150    9.9599   23.5583 C   0  0  0  0  0  0  0  0  0  0  0  0
   10.3795    8.7320   23.4629 O   0  0  0  0  0  0  0  0  0  0  0  0
   11.5086   10.7291   22.9288 C   0  0  0  0  0  0  0  0  0  0  0  0
   11.9511    9.8006   21.8314 C   0  0  0  0  0  0  0  0  0  0  0  0
   13.0383   10.3309   20.9834 C   0  0  0  0  0  0  0  0  0  0  0  0
   12.9877   11.6846   20.6162 N   0  0  0  0  0  0  0  0  0  0  0  0
   14.0741   12.0963   19.8834 C   0  0  0  0  0  0  0  0  0  0  0  0
   13.9586   12.3764   18.6958 O   0  0  0  0  0  0  0  0  0  0  0  0
   15.3639   12.2233   20.6587 C   0  0  0  0  0  0  0  0  0  0  0  0
   15.2753   12.6295   21.9996 O   0  0  0  0  0  0  0  0  0  0  0  0
   12.3979   12.6223   21.5358 C   0  0  0  0  0  0  0  0  0  0  0  0
   11.2545   12.0991   22.3730 C   0  0  0  0  0  0  0  0  0  0  0  0
    8.3131    9.8423   24.6834 C   0  0  0  0  0  0  0  0  0  0  0  0
    7.2449   10.3502   25.3991 C   0  0  0  0  0  0  0  0  0  0  0  0
    7.2842   11.6675   25.6998 C   0  0  0  0  0  0  0  0  0  0  0  0
    6.3199   12.3603   26.3745 N   0  0  0  0  0  0  0  0  0  0  0  0
  1  2  2  0
  2  3  1  0
  3  4  1  0
  4  5  2  0
  5  6  1  0
  6  7  1  0
  7  8  2  0
  7  9  1  0
  9 10  1  0
 10 11  1  0
 11 12  1  0
 12 13  1  0
 13 14  2  0
 13 15  1  0
 15 16  1  0
 12 17  1  0
 17 18  1  0
  6 19  2  0
 19 20  1  0
 20 21  2  0
 21 22  1  0
 22  2  1  0
 21  4  1  0
 18  9  1  0
M  END
>  <Crystalforms alias>  (358) 
nan

>  <original ID>  (358) 
DSWPNAIUGQHHCN-UHFFFAOYSA-N

>  <alias>  (358) 
None

>  <distance_score>  (358) 
1.972403

>  <CanonSites upload name>  (358) 
nan

>  <CanonSites alias>  (358) 
nan

>  <ConformerSites alias>  (358) 
nan

>  <observation_longname>  (358) 
nan

>  <CrystalformSites alias>  (358) 
nan

>  <tags>  (358) 
[]

>  <ref_mols>  (358) 
A1778a

>  <ref_pdb>  (358) 
A1778a

>  <Quatassemblies upload name>  (358) 
nan

>  <inchikey>  (358) 
DSWPNAIUGQHHCN-UHFFFAOYSA-N

>  <Experiment code>  (358) 
nan

>  <Quatassemblies alias>  (358) 
nan

>  <Crystalforms upload name>  (358) 
nan

>  <Centroid res>  (358) 
nan

>  <ConformerSites upload name>  (358) 
nan

>  <energy_score>  (358) 
9.254468

>  <original SMILES>  (358) 
O=C1Cc2cc(C(=O)C3CCN(C(=O)CO)CC3)ccc2N1

>  <exports>  (358) 
nan

>  <CrystalformSites upload name>  (358) 
nan

>  <name>  (358) 
DSWPNAIUGQHHCN-UHFFFAOYSA-N

>  <HIPPO ID>  (358) 
181664

$$$$
ZVXMTOGKCOHAQX-UHFFFAOYSA-N
     RDKit          3D

 22 24  0  0  0  0  0  0  0  0999 V2000
    6.5395   13.7307   26.3282 O   0  0  0  0  0  0  0  0  0  0  0  0
    7.3181   13.0511   25.6835 C   0  0  0  0  0  0  0  0  0  0  0  0
    8.4702   13.5379   24.7976 C   0  0  0  0  0  0  0  0  0  0  0  0
    9.0593   12.2398   24.3283 C   0  0  0  0  0  0  0  0  0  0  0  0
   10.1107   11.9951   23.4664 C   0  0  0  0  0  0  0  0  0  0  0  0
   10.5782   10.6859   23.2404 C   0  0  0  0  0  0  0  0  0  0  0  0
   11.7803   10.2831   22.3925 C   0  0  0  0  0  0  0  0  0  0  0  0
   11.9675    9.0803   22.2338 O   0  0  0  0  0  0  0  0  0  0  0  0
   12.5810   11.3085   21.5766 C   0  0  0  0  0  0  0  0  0  0  0  0
   13.6734   11.2516   20.5021 C   0  0  0  0  0  0  0  0  0  0  0  0
   13.4589   12.3559   19.3805 C   0  0  0  0  0  0  0  0  0  0  0  0
   12.4636   13.4261   19.6648 N   0  0  0  0  0  0  0  0  0  0  0  0
   12.1089   14.4946   18.8052 C   0  0  0  0  0  0  0  0  0  0  0  0
   11.8791   14.2570   17.6271 O   0  0  0  0  0  0  0  0  0  0  0  0
   12.0981   15.9456   19.3722 C   0  0  0  0  0  0  0  0  0  0  0  0
   11.9649   17.2597   18.1380 S   0  0  0  0  0  0  0  0  0  0  0  0
   11.9982   13.5599   21.0072 C   0  0  0  0  0  0  0  0  0  0  0  0
   12.6793   12.6974   22.0715 C   0  0  0  0  0  0  0  0  0  0  0  0
    9.8228    9.6368   23.7868 C   0  0  0  0  0  0  0  0  0  0  0  0
    8.6832    9.8869   24.5579 C   0  0  0  0  0  0  0  0  0  0  0  0
    8.3521   11.1851   24.8532 C   0  0  0  0  0  0  0  0  0  0  0  0
    7.3152   11.6600   25.6337 N   0  0  0  0  0  0  0  0  0  0  0  0
  1  2  2  0
  2  3  1  0
  3  4  1  0
  4  5  2  0
  5  6  1  0
  6  7  1  0
  7  8  2  0
  7  9  1  0
  9 10  1  0
 10 11  1  0
 11 12  1  0
 12 13  1  0
 13 14  2  0
 13 15  1  0
 15 16  1  0
 12 17  1  0
 17 18  1  0
  6 19  2  0
 19 20  1  0
 20 21  2  0
 21 22  1  0
 22  2  1  0
 21  4  1  0
 18  9  1  0
M  END
>  <Crystalforms alias>  (359) 
nan

>  <original ID>  (359) 
ZVXMTOGKCOHAQX-UHFFFAOYSA-N

>  <alias>  (359) 
None

>  <distance_score>  (359) 
0.707603

>  <CanonSites upload name>  (359) 
nan

>  <CanonSites alias>  (359) 
nan

>  <ConformerSites alias>  (359) 
nan

>  <observation_longname>  (359) 
nan

>  <CrystalformSites alias>  (359) 
nan

>  <tags>  (359) 
[]

>  <ref_mols>  (359) 
A1778a

>  <ref_pdb>  (359) 
A1778a

>  <Quatassemblies upload name>  (359) 
nan

>  <inchikey>  (359) 
ZVXMTOGKCOHAQX-UHFFFAOYSA-N

>  <Experiment code>  (359) 
nan

>  <Quatassemblies alias>  (359) 
nan

>  <Crystalforms upload name>  (359) 
nan

>  <Centroid res>  (359) 
nan

>  <ConformerSites upload name>  (359) 
nan

>  <energy_score>  (359) 
37.407233

>  <original SMILES>  (359) 
O=C1Cc2cc(C(=O)C3CCN(C(=O)CS)CC3)ccc2N1

>  <exports>  (359) 
nan

>  <CrystalformSites upload name>  (359) 
nan

>  <name>  (359) 
ZVXMTOGKCOHAQX-UHFFFAOYSA-N

>  <HIPPO ID>  (359) 
181704

$$$$
OCUCCULYOALSBO-UHFFFAOYSA-N
     RDKit          3D

 22 24  0  0  0  0  0  0  0  0999 V2000
   12.1442   15.6973   19.9385 O   0  0  0  0  0  0  0  0  0  0  0  0
   11.9319   14.7963   19.1425 C   0  0  0  0  0  0  0  0  0  0  0  0
   12.6913   13.4382   19.2045 C   0  0  0  0  0  0  0  0  0  0  0  0
   13.3091   12.9853   18.2529 O   0  0  0  0  0  0  0  0  0  0  0  0
   12.6754   12.6941   20.3674 N   0  0  0  0  0  0  0  0  0  0  0  0
   11.9746   13.1458   21.4972 C   0  0  0  0  0  0  0  0  0  0  0  0
   12.0782   12.3419   22.7671 C   0  0  0  0  0  0  0  0  0  0  0  0
   11.9004   10.8876   22.4792 C   0  0  0  0  0  0  0  0  0  0  0  0
   10.5395   10.3083   22.4643 C   0  0  0  0  0  0  0  0  0  0  0  0
   10.3126    9.2508   21.8841 O   0  0  0  0  0  0  0  0  0  0  0  0
    9.5453   10.8193   23.4143 C   0  0  0  0  0  0  0  0  0  0  0  0
    8.8978    9.8365   24.1612 C   0  0  0  0  0  0  0  0  0  0  0  0
    7.9154   10.2102   25.0556 C   0  0  0  0  0  0  0  0  0  0  0  0
    7.7014   11.5389   25.2739 C   0  0  0  0  0  0  0  0  0  0  0  0
    8.3481   12.5249   24.5599 C   0  0  0  0  0  0  0  0  0  0  0  0
    9.2140   12.1750   23.5561 C   0  0  0  0  0  0  0  0  0  0  0  0
    7.8701   13.8620   25.0202 C   0  0  0  0  0  0  0  0  0  0  0  0
    6.8215   13.4662   26.0780 C   0  0  0  0  0  0  0  0  0  0  0  0
    6.1066   14.1851   26.7526 O   0  0  0  0  0  0  0  0  0  0  0  0
    6.7986   12.0877   26.1496 N   0  0  0  0  0  0  0  0  0  0  0  0
   12.6980   10.5028   21.2425 C   0  0  0  0  0  0  0  0  0  0  0  0
   13.5178   11.5754   20.5663 C   0  0  0  0  0  0  0  0  0  0  0  0
  1  2  2  0
  2  3  1  0
  3  4  2  0
  3  5  1  0
  5  6  1  0
  6  7  1  0
  7  8  1  0
  8  9  1  0
  9 10  2  0
  9 11  1  0
 11 12  2  0
 12 13  1  0
 13 14  2  0
 14 15  1  0
 15 16  2  0
 15 17  1  0
 17 18  1  0
 18 19  2  0
 18 20  1  0
  8 21  1  0
 21 22  1  0
 22  5  1  0
 16 11  1  0
 20 14  1  0
M  END
>  <Crystalforms alias>  (360) 
nan

>  <original ID>  (360) 
OCUCCULYOALSBO-UHFFFAOYSA-N

>  <alias>  (360) 
None

>  <distance_score>  (360) 
1.387769

>  <CanonSites upload name>  (360) 
nan

>  <CanonSites alias>  (360) 
nan

>  <ConformerSites alias>  (360) 
nan

>  <observation_longname>  (360) 
nan

>  <CrystalformSites alias>  (360) 
nan

>  <tags>  (360) 
[]

>  <ref_mols>  (360) 
A1778a

>  <ref_pdb>  (360) 
A1778a

>  <Quatassemblies upload name>  (360) 
nan

>  <inchikey>  (360) 
OCUCCULYOALSBO-UHFFFAOYSA-N

>  <Experiment code>  (360) 
nan

>  <Quatassemblies alias>  (360) 
nan

>  <Crystalforms upload name>  (360) 
nan

>  <Centroid res>  (360) 
nan

>  <ConformerSites upload name>  (360) 
nan

>  <energy_score>  (360) 
2.918756

>  <original SMILES>  (360) 
O=CC(=O)N1CCC(C(=O)c2ccc3c(c2)CC(=O)N3)CC1

>  <exports>  (360) 
nan

>  <CrystalformSites upload name>  (360) 
nan

>  <name>  (360) 
OCUCCULYOALSBO-UHFFFAOYSA-N

>  <HIPPO ID>  (360) 
181715

$$$$
KGBVVWICIGVOAB-UHFFFAOYSA-N
     RDKit          3D

 23 25  0  0  0  0  0  0  0  0999 V2000
   12.3980   15.9897   19.0717 C   0  0  0  0  0  0  0  0  0  0  0  0
   12.1562   14.6765   18.9138 C   0  0  0  0  0  0  0  0  0  0  0  0
   10.6147   14.3394   18.3138 Cl  0  0  0  0  0  0  0  0  0  0  0  0
   12.9673   13.3893   19.1856 C   0  0  0  0  0  0  0  0  0  0  0  0
   13.9376   12.9951   18.5483 O   0  0  0  0  0  0  0  0  0  0  0  0
   12.6825   12.6729   20.3194 N   0  0  0  0  0  0  0  0  0  0  0  0
   11.9761   13.2898   21.3673 C   0  0  0  0  0  0  0  0  0  0  0  0
   11.0311   12.4766   22.1882 C   0  0  0  0  0  0  0  0  0  0  0  0
   11.7435   11.2488   22.6399 C   0  0  0  0  0  0  0  0  0  0  0  0
   10.8949   10.1872   23.2614 C   0  0  0  0  0  0  0  0  0  0  0  0
   11.0156    8.9974   22.9848 O   0  0  0  0  0  0  0  0  0  0  0  0
    9.8675   10.6328   24.2175 C   0  0  0  0  0  0  0  0  0  0  0  0
    8.7918    9.7752   24.4169 C   0  0  0  0  0  0  0  0  0  0  0  0
    7.7041   10.2168   25.1517 C   0  0  0  0  0  0  0  0  0  0  0  0
    7.6568   11.5297   25.5100 C   0  0  0  0  0  0  0  0  0  0  0  0
    8.7165   12.3901   25.3315 C   0  0  0  0  0  0  0  0  0  0  0  0
    9.8871   11.9074   24.8094 C   0  0  0  0  0  0  0  0  0  0  0  0
    8.3253   13.7558   25.7948 C   0  0  0  0  0  0  0  0  0  0  0  0
    6.9261   13.4843   26.3877 C   0  0  0  0  0  0  0  0  0  0  0  0
    6.1797   14.2406   26.9824 O   0  0  0  0  0  0  0  0  0  0  0  0
    6.6161   12.1637   26.1375 N   0  0  0  0  0  0  0  0  0  0  0  0
   12.5001   10.6040   21.4813 C   0  0  0  0  0  0  0  0  0  0  0  0
   13.4320   11.5178   20.7123 C   0  0  0  0  0  0  0  0  0  0  0  0
  1  2  2  0
  2  3  1  0
  2  4  1  0
  4  5  2  0
  4  6  1  0
  6  7  1  0
  7  8  1  0
  8  9  1  0
  9 10  1  0
 10 11  2  0
 10 12  1  0
 12 13  2  0
 13 14  1  0
 14 15  2  0
 15 16  1  0
 16 17  2  0
 16 18  1  0
 18 19  1  0
 19 20  2  0
 19 21  1  0
  9 22  1  0
 22 23  1  0
 23  6  1  0
 17 12  1  0
 21 15  1  0
M  END
>  <Crystalforms alias>  (361) 
nan

>  <original ID>  (361) 
KGBVVWICIGVOAB-UHFFFAOYSA-N

>  <alias>  (361) 
None

>  <distance_score>  (361) 
1.435435

>  <CanonSites upload name>  (361) 
nan

>  <CanonSites alias>  (361) 
nan

>  <ConformerSites alias>  (361) 
nan

>  <observation_longname>  (361) 
nan

>  <CrystalformSites alias>  (361) 
nan

>  <tags>  (361) 
[]

>  <ref_mols>  (361) 
A1778a

>  <ref_pdb>  (361) 
A1778a

>  <Quatassemblies upload name>  (361) 
nan

>  <inchikey>  (361) 
KGBVVWICIGVOAB-UHFFFAOYSA-N

>  <Experiment code>  (361) 
nan

>  <Quatassemblies alias>  (361) 
nan

>  <Crystalforms upload name>  (361) 
nan

>  <Centroid res>  (361) 
nan

>  <ConformerSites upload name>  (361) 
nan

>  <energy_score>  (361) 
-0.002579

>  <original SMILES>  (361) 
C=C(Cl)C(=O)N1CCC(C(=O)c2ccc3c(c2)CC(=O)N3)CC1

>  <exports>  (361) 
nan

>  <CrystalformSites upload name>  (361) 
nan

>  <name>  (361) 
KGBVVWICIGVOAB-UHFFFAOYSA-N

>  <HIPPO ID>  (361) 
182172

$$$$
PQUXRIKKCAPQTD-UHFFFAOYSA-N
     RDKit          3D

 23 25  0  0  0  0  0  0  0  0999 V2000
   11.6542   16.3893   17.7477 N   0  0  0  0  0  0  0  0  0  0  0  0
   11.5365   15.4473   18.4237 C   0  0  0  0  0  0  0  0  0  0  0  0
   11.4562   14.2262   19.2856 C   0  0  0  0  0  0  0  0  0  0  0  0
   12.0497   14.4410   20.6382 C   0  0  0  0  0  0  0  0  0  0  0  0
   12.4429   15.6160   20.6991 O   0  0  0  0  0  0  0  0  0  0  0  0
   12.3295   13.2895   21.6858 N   0  0  0  0  0  0  0  0  0  0  0  0
   11.8815   12.0149   21.3885 C   0  0  0  0  0  0  0  0  0  0  0  0
   11.8902   10.7413   22.1748 C   0  0  0  0  0  0  0  0  0  0  0  0
   11.5720   11.0408   23.6244 C   0  0  0  0  0  0  0  0  0  0  0  0
   10.1248   10.6379   23.7923 C   0  0  0  0  0  0  0  0  0  0  0  0
    9.7863    9.4715   23.5622 O   0  0  0  0  0  0  0  0  0  0  0  0
    9.0497   11.5413   24.2129 C   0  0  0  0  0  0  0  0  0  0  0  0
    8.1386   10.9721   25.1261 C   0  0  0  0  0  0  0  0  0  0  0  0
    6.9758   11.6181   25.5074 C   0  0  0  0  0  0  0  0  0  0  0  0
    6.7247   12.8035   24.8749 C   0  0  0  0  0  0  0  0  0  0  0  0
    7.5883   13.3730   23.9347 C   0  0  0  0  0  0  0  0  0  0  0  0
    8.7863   12.7688   23.6075 C   0  0  0  0  0  0  0  0  0  0  0  0
    6.9387   14.5947   23.3541 C   0  0  0  0  0  0  0  0  0  0  0  0
    5.6227   14.6506   24.1434 C   0  0  0  0  0  0  0  0  0  0  0  0
    4.7762   15.5227   24.1087 O   0  0  0  0  0  0  0  0  0  0  0  0
    5.5855   13.5633   24.9939 N   0  0  0  0  0  0  0  0  0  0  0  0
   12.1294   12.4214   24.0478 C   0  0  0  0  0  0  0  0  0  0  0  0
   13.0767   13.1378   22.9755 C   0  0  0  0  0  0  0  0  0  0  0  0
  1  2  3  0
  2  3  1  0
  3  4  1  0
  4  5  2  0
  4  6  1  0
  6  7  1  0
  7  8  1  0
  8  9  1  0
  9 10  1  0
 10 11  2  0
 10 12  1  0
 12 13  2  0
 13 14  1  0
 14 15  2  0
 15 16  1  0
 16 17  2  0
 16 18  1  0
 18 19  1  0
 19 20  2  0
 19 21  1  0
  9 22  1  0
 22 23  1  0
 23  6  1  0
 17 12  1  0
 21 15  1  0
M  END
>  <Crystalforms alias>  (362) 
nan

>  <original ID>  (362) 
PQUXRIKKCAPQTD-UHFFFAOYSA-N

>  <alias>  (362) 
None

>  <distance_score>  (362) 
2.562505

>  <CanonSites upload name>  (362) 
nan

>  <CanonSites alias>  (362) 
nan

>  <ConformerSites alias>  (362) 
nan

>  <observation_longname>  (362) 
nan

>  <CrystalformSites alias>  (362) 
nan

>  <tags>  (362) 
[]

>  <ref_mols>  (362) 
A1778a

>  <ref_pdb>  (362) 
A1778a

>  <Quatassemblies upload name>  (362) 
nan

>  <inchikey>  (362) 
PQUXRIKKCAPQTD-UHFFFAOYSA-N

>  <Experiment code>  (362) 
nan

>  <Quatassemblies alias>  (362) 
nan

>  <Crystalforms upload name>  (362) 
nan

>  <Centroid res>  (362) 
nan

>  <ConformerSites upload name>  (362) 
nan

>  <energy_score>  (362) 
40.695832

>  <original SMILES>  (362) 
N#CCC(=O)N1CCC(C(=O)c2ccc3c(c2)CC(=O)N3)CC1

>  <exports>  (362) 
nan

>  <CrystalformSites upload name>  (362) 
nan

>  <name>  (362) 
PQUXRIKKCAPQTD-UHFFFAOYSA-N

>  <HIPPO ID>  (362) 
182229

$$$$
NJBYUOPISWSFMI-KGLIPLIRSA-N
     RDKit          3D

 24 27  0  0  0  0  0  0  0  0999 V2000
    5.7789   14.3238   27.0458 O   0  0  0  0  0  0  0  0  0  0  0  0
    6.4453   13.5589   26.3690 C   0  0  0  0  0  0  0  0  0  0  0  0
    7.5646   13.8896   25.3590 C   0  0  0  0  0  0  0  0  0  0  0  0
    8.0241   12.5409   24.9402 C   0  0  0  0  0  0  0  0  0  0  0  0
    9.0134   12.1902   24.0455 C   0  0  0  0  0  0  0  0  0  0  0  0
    9.2615   10.8330   23.8451 C   0  0  0  0  0  0  0  0  0  0  0  0
   10.2310   10.2745   22.8735 C   0  0  0  0  0  0  0  0  0  0  0  0
    9.9517    9.1966   22.3478 O   0  0  0  0  0  0  0  0  0  0  0  0
   11.5974   10.8802   22.6943 C   0  0  0  0  0  0  0  0  0  0  0  0
   12.2977   10.2447   21.5225 C   0  0  0  0  0  0  0  0  0  0  0  0
   13.3447   11.0332   20.7031 C   0  0  0  0  0  0  0  0  0  0  0  0
   13.9941   12.1687   21.2869 N   0  0  0  0  0  0  0  0  0  0  0  0
   15.3643   12.3906   20.8209 C   0  0  0  0  0  0  0  0  0  0  0  0
   15.9302   11.3568   20.5848 O   0  0  0  0  0  0  0  0  0  0  0  0
   16.0576   13.5319   20.0791 C   0  0  2  0  0  0  0  0  0  0  0  0
   17.4497   13.8649   19.3872 C   0  0  0  0  0  0  0  0  0  0  0  0
   16.9434   14.7655   20.1710 C   0  0  2  0  0  0  0  0  0  0  0  0
   17.6333   15.3263   21.2092 F   0  0  0  0  0  0  0  0  0  0  0  0
   13.0242   12.9527   22.0299 C   0  0  0  0  0  0  0  0  0  0  0  0
   11.7387   12.3485   22.6265 C   0  0  0  0  0  0  0  0  0  0  0  0
    8.4769    9.8831   24.5152 C   0  0  0  0  0  0  0  0  0  0  0  0
    7.4286   10.2706   25.3496 C   0  0  0  0  0  0  0  0  0  0  0  0
    7.2475   11.5947   25.5712 C   0  0  0  0  0  0  0  0  0  0  0  0
    6.3143   12.1823   26.3928 N   0  0  0  0  0  0  0  0  0  0  0  0
  1  2  2  0
  2  3  1  0
  3  4  1  0
  4  5  2  0
  5  6  1  0
  6  7  1  0
  7  8  2  0
  7  9  1  0
  9 10  1  0
 10 11  1  0
 11 12  1  0
 12 13  1  0
 13 14  2  0
 15 13  1  1
 15 16  1  0
 16 17  1  0
 17 18  1  1
 12 19  1  0
 19 20  1  0
  6 21  2  0
 21 22  1  0
 22 23  2  0
 23 24  1  0
 24  2  1  0
 23  4  1  0
 20  9  1  0
 17 15  1  0
M  END
>  <Crystalforms alias>  (363) 
nan

>  <original ID>  (363) 
NJBYUOPISWSFMI-KGLIPLIRSA-N

>  <alias>  (363) 
None

>  <distance_score>  (363) 
1.812203

>  <CanonSites upload name>  (363) 
nan

>  <CanonSites alias>  (363) 
nan

>  <ConformerSites alias>  (363) 
nan

>  <observation_longname>  (363) 
nan

>  <CrystalformSites alias>  (363) 
nan

>  <tags>  (363) 
[]

>  <ref_mols>  (363) 
A1778a

>  <ref_pdb>  (363) 
A1778a

>  <Quatassemblies upload name>  (363) 
nan

>  <inchikey>  (363) 
NJBYUOPISWSFMI-KGLIPLIRSA-N

>  <Experiment code>  (363) 
nan

>  <Quatassemblies alias>  (363) 
nan

>  <Crystalforms upload name>  (363) 
nan

>  <Centroid res>  (363) 
nan

>  <ConformerSites upload name>  (363) 
nan

>  <energy_score>  (363) 
117.141091

>  <original SMILES>  (363) 
O=C1Cc2cc(C(=O)C3CCN(C(=O)[C@@H]4C[C@@H]4F)CC3)ccc2N1

>  <exports>  (363) 
nan

>  <CrystalformSites upload name>  (363) 
nan

>  <name>  (363) 
NJBYUOPISWSFMI-KGLIPLIRSA-N

>  <HIPPO ID>  (363) 
182405

$$$$
NJBYUOPISWSFMI-KBPBESRZSA-N
     RDKit          3D

 24 27  0  0  0  0  0  0  0  0999 V2000
    5.7353   14.5767   27.2957 O   0  0  0  0  0  0  0  0  0  0  0  0
    6.2458   13.7148   26.6043 C   0  0  0  0  0  0  0  0  0  0  0  0
    7.3383   13.8756   25.5405 C   0  0  0  0  0  0  0  0  0  0  0  0
    7.6230   12.4699   25.2088 C   0  0  0  0  0  0  0  0  0  0  0  0
    8.6058   11.9890   24.4015 C   0  0  0  0  0  0  0  0  0  0  0  0
    8.8346   10.6291   24.3950 C   0  0  0  0  0  0  0  0  0  0  0  0
    9.9772    9.8972   23.8395 C   0  0  0  0  0  0  0  0  0  0  0  0
    9.8105    8.7280   23.4794 O   0  0  0  0  0  0  0  0  0  0  0  0
   11.3338   10.5003   23.7526 C   0  0  0  0  0  0  0  0  0  0  0  0
   11.4305   12.0238   23.9004 C   0  0  0  0  0  0  0  0  0  0  0  0
   10.9478   12.5825   22.5715 C   0  0  0  0  0  0  0  0  0  0  0  0
   12.0454   12.3876   21.7026 N   0  0  0  0  0  0  0  0  0  0  0  0
   12.2710   13.2567   20.6482 C   0  0  0  0  0  0  0  0  0  0  0  0
   11.7920   14.3555   20.4361 O   0  0  0  0  0  0  0  0  0  0  0  0
   13.1447   12.6227   19.6688 C   0  0  1  0  0  0  0  0  0  0  0  0
   14.3714   12.9315   18.9901 C   0  0  0  0  0  0  0  0  0  0  0  0
   14.4275   12.0157   20.1230 C   0  0  2  0  0  0  0  0  0  0  0  0
   14.5018   10.6727   19.9853 F   0  0  0  0  0  0  0  0  0  0  0  0
   12.4029   10.9832   21.5542 C   0  0  0  0  0  0  0  0  0  0  0  0
   11.6939    9.9879   22.3706 C   0  0  0  0  0  0  0  0  0  0  0  0
    7.8966    9.8137   25.0017 C   0  0  0  0  0  0  0  0  0  0  0  0
    6.8138   10.3050   25.7290 C   0  0  0  0  0  0  0  0  0  0  0  0
    6.7568   11.6434   25.8740 C   0  0  0  0  0  0  0  0  0  0  0  0
    5.9224   12.3736   26.6757 N   0  0  0  0  0  0  0  0  0  0  0  0
  1  2  2  0
  2  3  1  0
  3  4  1  0
  4  5  2  0
  5  6  1  0
  6  7  1  0
  7  8  2  0
  7  9  1  0
  9 10  1  0
 10 11  1  0
 11 12  1  0
 12 13  1  0
 13 14  2  0
 15 13  1  1
 15 16  1  0
 16 17  1  0
 17 18  1  6
 12 19  1  0
 19 20  1  0
  6 21  2  0
 21 22  1  0
 22 23  2  0
 23 24  1  0
 24  2  1  0
 23  4  1  0
 20  9  1  0
 17 15  1  0
M  END
>  <Crystalforms alias>  (364) 
nan

>  <original ID>  (364) 
NJBYUOPISWSFMI-KBPBESRZSA-N

>  <alias>  (364) 
None

>  <distance_score>  (364) 
2.424309

>  <CanonSites upload name>  (364) 
nan

>  <CanonSites alias>  (364) 
nan

>  <ConformerSites alias>  (364) 
nan

>  <observation_longname>  (364) 
nan

>  <CrystalformSites alias>  (364) 
nan

>  <tags>  (364) 
[]

>  <ref_mols>  (364) 
A1778a

>  <ref_pdb>  (364) 
A1778a

>  <Quatassemblies upload name>  (364) 
nan

>  <inchikey>  (364) 
NJBYUOPISWSFMI-KBPBESRZSA-N

>  <Experiment code>  (364) 
nan

>  <Quatassemblies alias>  (364) 
nan

>  <Crystalforms upload name>  (364) 
nan

>  <Centroid res>  (364) 
nan

>  <ConformerSites upload name>  (364) 
nan

>  <energy_score>  (364) 
34.489113

>  <original SMILES>  (364) 
O=C1Cc2cc(C(=O)C3CCN(C(=O)[C@H]4C[C@@H]4F)CC3)ccc2N1

>  <exports>  (364) 
nan

>  <CrystalformSites upload name>  (364) 
nan

>  <name>  (364) 
NJBYUOPISWSFMI-KBPBESRZSA-N

>  <HIPPO ID>  (364) 
182406

$$$$
VKQJXGLAYUFNNG-OCAPTIKFSA-N
     RDKit          3D

 19 21  0  0  0  0  0  0  0  0999 V2000
    4.9363   11.6755   27.2227 O   0  0  0  0  0  0  0  0  0  0  0  0
    5.6461   10.7455   26.8494 C   0  0  0  0  0  0  0  0  0  0  0  0
    5.4850    9.4813   27.3806 N   0  0  0  0  0  0  0  0  0  0  0  0
    4.5282    9.2461   28.4743 C   0  0  2  0  0  0  0  0  0  0  0  0
    4.6060    7.8505   29.1277 C   0  0  0  0  0  0  0  0  0  0  0  0
    3.0569    7.8696   29.1839 C   0  0  2  0  0  0  0  0  0  0  0  0
    2.3193    6.5980   28.8776 C   0  0  0  0  0  0  0  0  0  0  0  0
    2.3919    5.7647   29.9332 F   0  0  0  0  0  0  0  0  0  0  0  0
    1.0204    6.8674   28.6216 F   0  0  0  0  0  0  0  0  0  0  0  0
    2.8379    5.9861   27.7929 F   0  0  0  0  0  0  0  0  0  0  0  0
    3.1112    8.8579   28.0098 C   0  0  0  0  0  0  0  0  0  0  0  0
    6.7135   10.9296   25.8947 C   0  0  0  0  0  0  0  0  0  0  0  0
    7.1766   12.1712   25.4398 C   0  0  0  0  0  0  0  0  0  0  0  0
    8.2180   11.8837   24.5810 C   0  0  0  0  0  0  0  0  0  0  0  0
    9.0954   12.6668   23.8443 C   0  0  0  0  0  0  0  0  0  0  0  0
    9.9475   11.8158   23.1534 C   0  0  0  0  0  0  0  0  0  0  0  0
    9.5755   10.1242   23.4042 S   0  0  0  0  0  0  0  0  0  0  0  0
    8.3785   10.5631   24.4664 C   0  0  0  0  0  0  0  0  0  0  0  0
    7.4672    9.9487   25.2551 N   0  0  0  0  0  0  0  0  0  0  0  0
  1  2  2  0
  2  3  1  0
  4  3  1  6
  4  5  1  0
  5  6  1  0
  6  7  1  6
  7  8  1  0
  7  9  1  0
  7 10  1  0
  6 11  1  0
  2 12  1  0
 12 13  2  0
 13 14  1  0
 14 15  1  0
 15 16  2  0
 16 17  1  0
 17 18  1  0
 18 19  1  0
 11  4  1  0
 19 12  1  0
 18 14  2  0
M  END
>  <Crystalforms alias>  (365) 
nan

>  <original ID>  (365) 
VKQJXGLAYUFNNG-OCAPTIKFSA-N

>  <alias>  (365) 
None

>  <distance_score>  (365) 
0.691213

>  <CanonSites upload name>  (365) 
nan

>  <CanonSites alias>  (365) 
nan

>  <ConformerSites alias>  (365) 
nan

>  <observation_longname>  (365) 
nan

>  <CrystalformSites alias>  (365) 
nan

>  <tags>  (365) 
['Syndirella scaffold']

>  <ref_mols>  (365) 
A0556a,A0566a

>  <ref_pdb>  (365) 
A0310a

>  <Quatassemblies upload name>  (365) 
nan

>  <inchikey>  (365) 
VKQJXGLAYUFNNG-OCAPTIKFSA-N

>  <Experiment code>  (365) 
nan

>  <Quatassemblies alias>  (365) 
nan

>  <Crystalforms upload name>  (365) 
nan

>  <Centroid res>  (365) 
nan

>  <ConformerSites upload name>  (365) 
nan

>  <energy_score>  (365) 
-38.215006

>  <original SMILES>  (365) 
O=C(N[C@H]1C[C@@H](C(F)(F)F)C1)c1cc2ccsc2[nH]1

>  <exports>  (365) 
nan

>  <CrystalformSites upload name>  (365) 
nan

>  <name>  (365) 
VKQJXGLAYUFNNG-OCAPTIKFSA-N

>  <HIPPO ID>  (365) 
182468

$$$$
LOFPJTBPHYUPTQ-UHFFFAOYSA-N
     RDKit          3D

 21 23  0  0  0  0  0  0  0  0999 V2000
   10.4210   10.7464   22.7847 O   0  0  0  0  0  0  0  0  0  0  0  0
   10.2894   11.9128   23.1029 C   0  0  0  0  0  0  0  0  0  0  0  0
   11.2158   13.0601   22.7818 C   0  0  0  0  0  0  0  0  0  0  0  0
   10.8131   14.1122   23.7907 C   0  0  0  0  0  0  0  0  0  0  0  0
    9.3381   13.8647   23.9477 C   0  0  0  0  0  0  0  0  0  0  0  0
    9.2384   12.4384   23.8295 N   0  0  0  0  0  0  0  0  0  0  0  0
    8.2344   11.7006   24.4495 C   0  0  0  0  0  0  0  0  0  0  0  0
    7.1344   12.3868   24.9313 C   0  0  0  0  0  0  0  0  0  0  0  0
    6.1947   11.7237   25.6799 C   0  0  0  0  0  0  0  0  0  0  0  0
    6.3754   10.3861   25.9574 C   0  0  0  0  0  0  0  0  0  0  0  0
    5.4893    9.6852   26.7398 N   0  0  0  0  0  0  0  0  0  0  0  0
    4.8337   10.3199   27.8560 C   0  0  0  0  0  0  0  0  0  0  0  0
    5.7896   10.7612   28.9382 C   0  0  0  0  0  0  0  0  0  0  0  0
    6.1782    9.8556   29.9332 C   0  0  0  0  0  0  0  0  0  0  0  0
    7.0706   10.2368   30.9374 C   0  0  0  0  0  0  0  0  0  0  0  0
    7.5887   11.5301   30.9546 C   0  0  0  0  0  0  0  0  0  0  0  0
    7.2048   12.4329   29.9724 C   0  0  0  0  0  0  0  0  0  0  0  0
    7.7158   13.6712   29.9763 F   0  0  0  0  0  0  0  0  0  0  0  0
    6.3074   12.0658   28.9764 C   0  0  0  0  0  0  0  0  0  0  0  0
    7.3963    9.6853   25.4406 N   0  0  0  0  0  0  0  0  0  0  0  0
    8.2936   10.3335   24.6720 C   0  0  0  0  0  0  0  0  0  0  0  0
  1  2  2  0
  2  3  1  0
  3  4  1  0
  4  5  1  0
  5  6  1  0
  6  7  1  0
  7  8  2  0
  8  9  1  0
  9 10  2  0
 10 11  1  0
 11 12  1  0
 12 13  1  0
 13 14  2  0
 14 15  1  0
 15 16  2  0
 16 17  1  0
 17 18  1  0
 17 19  2  0
 10 20  1  0
 20 21  2  0
  6  2  1  0
 21  7  1  0
 19 13  1  0
M  END
>  <Crystalforms alias>  (366) 
nan

>  <original ID>  (366) 
LOFPJTBPHYUPTQ-UHFFFAOYSA-N

>  <alias>  (366) 
None

>  <distance_score>  (366) 
1.650132

>  <CanonSites upload name>  (366) 
nan

>  <CanonSites alias>  (366) 
nan

>  <ConformerSites alias>  (366) 
nan

>  <observation_longname>  (366) 
nan

>  <CrystalformSites alias>  (366) 
nan

>  <tags>  (366) 
['Syndirella scaffold']

>  <ref_mols>  (366) 
A0528a,A0365a

>  <ref_pdb>  (366) 
A0310a

>  <Quatassemblies upload name>  (366) 
nan

>  <inchikey>  (366) 
LOFPJTBPHYUPTQ-UHFFFAOYSA-N

>  <Experiment code>  (366) 
nan

>  <Quatassemblies alias>  (366) 
nan

>  <Crystalforms upload name>  (366) 
nan

>  <Centroid res>  (366) 
nan

>  <ConformerSites upload name>  (366) 
nan

>  <energy_score>  (366) 
-28.753038

>  <original SMILES>  (366) 
O=C1CCCN1c1ccc(NCc2cccc(F)c2)nc1

>  <exports>  (366) 
nan

>  <CrystalformSites upload name>  (366) 
nan

>  <name>  (366) 
LOFPJTBPHYUPTQ-UHFFFAOYSA-N

>  <HIPPO ID>  (366) 
196616

$$$$
