A71EV2A-x3509_A_201_v1
     RDKit          3D

 20 21  0  0  0  0  0  0  0  0999 V2000
   10.0100   17.0330   19.4960 O   0  0  0  0  0  0  0  0  0  0  0  0
   10.4670   15.9140   19.7510 C   0  0  0  0  0  0  0  0  0  0  0  0
   10.6240   14.9750   18.8300 N   0  0  0  0  0  0  0  0  0  0  0  0
   10.8240   15.5150   21.1710 C   0  0  1  0  0  0  0  0  0  0  0  0
   11.6430   16.6200   21.8600 C   0  0  0  0  0  0  0  0  0  0  0  0
   11.9160   16.2830   23.3310 C   0  0  0  0  0  0  0  0  0  0  0  0
   10.6260   15.9980   24.0650 C   0  0  0  0  0  0  0  0  0  0  0  0
    9.5510   15.2440   21.9730 C   0  0  0  0  0  0  0  0  0  0  0  0
    9.8860   14.9390   23.3700 N   0  0  0  0  0  0  0  0  0  0  0  0
    9.6910   13.7590   24.0240 C   0  0  0  0  0  0  0  0  0  0  0  0
    9.7730   13.6830   25.2510 O   0  0  0  0  0  0  0  0  0  0  0  0
    9.3970   12.6830   23.2390 N   0  0  0  0  0  0  0  0  0  0  0  0
    8.7270   11.5310   23.7140 C   0  0  0  0  0  0  0  0  0  0  0  0
    9.0760   10.2770   23.2280 C   0  0  0  0  0  0  0  0  0  0  0  0
    8.3960    9.1520   23.6690 C   0  0  0  0  0  0  0  0  0  0  0  0
    7.3990    9.2650   24.6210 C   0  0  0  0  0  0  0  0  0  0  0  0
    7.7200   11.6520   24.6690 C   0  0  0  0  0  0  0  0  0  0  0  0
    7.0700   10.5100   25.1360 C   0  0  0  0  0  0  0  0  0  0  0  0
    6.0780   10.6230   26.1760 C   0  0  0  0  0  0  0  0  0  0  0  0
    5.2880   10.6780   26.9950 N   0  0  0  0  0  0  0  0  0  0  0  0
  2  1  2  0
  3  2  1  0
  4  2  1  6
  5  4  1  0
  6  5  1  0
  7  6  1  0
  8  4  1  0
  9  8  1  0
  9  7  1  0
 10  9  1  0
 11 10  2  0
 12 10  1  0
 13 12  1  0
 14 13  2  0
 15 14  1  0
 16 15  2  0
 17 13  1  0
 18 16  1  0
 18 17  2  0
 19 18  1  0
 20 19  3  0
M  END
>  <id>  (1) 
207362

>  <inchikey>  (1) 
USAPPLNLVADEDO-NSHDSACASA-N

>  <alias>  (1) 
A3509a

>  <name>  (1) 
A3509a

>  <smiles>  (1) 
N#Cc1cccc(NC(=O)N2CCC[C@H](C(N)=O)C2)c1

>  <path>  (1) 
/opt/xchem-fragalysis-2/maxwin/2A_HIPPO/A71EV2A_P3only_20241211/aligned_files/A3509a/A3509a_hippo.pdb

>  <distance_score>  (1) 
None

>  <energy_score>  (1) 
None

>  <compound>  (1) 
USAPPLNLVADEDO-UHFFFAOYSA-N

>  <compound_id>  (1) 
122444

>  <target>  (1) 
A71EV2A

$$$$
A71EV2A-x3510_A_201_v1
     RDKit          3D

 19 20  0  0  0  0  0  0  0  0999 V2000
    9.9080   16.9840   19.5360 O   0  0  0  0  0  0  0  0  0  0  0  0
   10.2140   15.8080   19.7370 C   0  0  0  0  0  0  0  0  0  0  0  0
   10.4920   14.9620   18.7600 N   0  0  0  0  0  0  0  0  0  0  0  0
   10.2710   15.2420   21.1450 C   0  0  1  0  0  0  0  0  0  0  0  0
   11.2670   16.0130   22.0190 C   0  0  0  0  0  0  0  0  0  0  0  0
   11.3160   15.4550   23.4440 C   0  0  0  0  0  0  0  0  0  0  0  0
    9.9220   15.4040   24.0640 C   0  0  0  0  0  0  0  0  0  0  0  0
    8.9080   15.3550   21.8300 C   0  0  0  0  0  0  0  0  0  0  0  0
    8.9690   14.7390   23.1600 N   0  0  0  0  0  0  0  0  0  0  0  0
    8.1610   13.6790   23.4500 C   0  0  0  0  0  0  0  0  0  0  0  0
    7.3510   13.2490   22.6390 O   0  0  0  0  0  0  0  0  0  0  0  0
    8.3100   13.1310   24.6890 N   0  0  0  0  0  0  0  0  0  0  0  0
    7.5730   12.0210   25.1850 C   0  0  0  0  0  0  0  0  0  0  0  0
    7.8760   10.7230   24.7250 C   0  0  0  0  0  0  0  0  0  0  0  0
    9.0750   10.4440   23.8550 C   0  0  0  0  0  0  0  0  0  0  0  0
    6.5440   12.2280   26.1060 C   0  0  0  0  0  0  0  0  0  0  0  0
    5.7980   11.1550   26.5600 C   0  0  0  0  0  0  0  0  0  0  0  0
    6.0610    9.8860   26.0970 C   0  0  0  0  0  0  0  0  0  0  0  0
    7.0820    9.6730   25.1860 C   0  0  0  0  0  0  0  0  0  0  0  0
  2  1  2  0
  3  2  1  0
  4  2  1  6
  5  4  1  0
  6  5  1  0
  7  6  1  0
  8  4  1  0
  9  8  1  0
  9  7  1  0
 10  9  1  0
 11 10  2  0
 12 10  1  0
 13 12  1  0
 14 13  2  0
 15 14  1  0
 16 13  1  0
 17 16  2  0
 18 17  1  0
 19 18  2  0
 19 14  1  0
M  END
>  <id>  (2) 
207363

>  <inchikey>  (2) 
AIEHCHWAPRSECY-NSHDSACASA-N

>  <alias>  (2) 
A3510a

>  <name>  (2) 
A3510a

>  <smiles>  (2) 
Cc1ccccc1NC(=O)N1CCC[C@H](C(N)=O)C1

>  <path>  (2) 
/opt/xchem-fragalysis-2/maxwin/2A_HIPPO/A71EV2A_P3only_20241211/aligned_files/A3510a/A3510a.pdb

>  <distance_score>  (2) 
None

>  <energy_score>  (2) 
None

>  <compound>  (2) 
AIEHCHWAPRSECY-UHFFFAOYSA-N

>  <compound_id>  (2) 
122445

>  <target>  (2) 
A71EV2A

$$$$
A71EV2A-x3522_A_201_v1
     RDKit          3D

 22 23  0  0  0  0  0  0  0  0999 V2000
    5.9450   10.7730   26.7050 Cl  0  0  0  0  0  0  0  0  0  0  0  0
    7.2360   11.1480   25.5830 C   0  0  0  0  0  0  0  0  0  0  0  0
    7.9900   10.1050   25.0770 C   0  0  0  0  0  0  0  0  0  0  0  0
    9.0040   10.3390   24.1540 C   0  0  0  0  0  0  0  0  0  0  0  0
   10.0050    9.2650   23.8100 C   0  0  0  0  0  0  0  0  0  0  0  0
    9.1880   11.6290   23.6930 C   0  0  0  0  0  0  0  0  0  0  0  0
    8.4650   12.6740   24.2140 C   0  0  0  0  0  0  0  0  0  0  0  0
    7.4770   12.4730   25.1940 C   0  0  0  0  0  0  0  0  0  0  0  0
    6.8250   13.5810   25.8240 N   0  0  0  0  0  0  0  0  0  0  0  0
    7.4570   14.5980   26.4160 C   0  0  0  0  0  0  0  0  0  0  0  0
    8.6280   14.5760   26.7670 O   0  0  0  0  0  0  0  0  0  0  0  0
    6.5980   15.8200   26.6390 C   0  0  0  0  0  0  0  0  0  0  0  0
    6.4090   16.1150   28.0010 O   0  0  0  0  0  0  0  0  0  0  0  0
    5.2090   15.5620   28.5520 C   0  0  0  0  0  0  0  0  0  0  0  0
    8.6900   13.9770   23.8600 O   0  0  0  0  0  0  0  0  0  0  0  0
    8.5070   14.3270   22.4750 C   0  0  0  0  0  0  0  0  0  0  0  0
    7.0210   14.6250   22.4290 C   0  0  0  0  0  0  0  0  0  0  0  0
    6.2080   13.7110   21.8280 N   0  0  0  0  0  0  0  0  0  0  0  0
    4.8940   13.9230   21.9530 C   0  0  0  0  0  0  0  0  0  0  0  0
    4.3580   14.9820   22.6470 C   0  0  0  0  0  0  0  0  0  0  0  0
    5.2550   15.8570   23.2030 C   0  0  0  0  0  0  0  0  0  0  0  0
    6.5810   15.7270   23.0950 N   0  0  0  0  0  0  0  0  0  0  0  0
  2  1  1  0
  3  2  2  0
  4  3  1  0
  5  4  1  0
  6  4  2  0
  7  6  1  0
  8  7  2  0
  8  2  1  0
  9  8  1  0
 10  9  1  0
 11 10  2  0
 12 10  1  0
 13 12  1  0
 14 13  1  0
 15  7  1  0
 16 15  1  0
 17 16  1  0
 18 17  2  0
 19 18  1  0
 20 19  2  0
 21 20  1  0
 22 21  2  0
 22 17  1  0
M  END
>  <id>  (3) 
207364

>  <inchikey>  (3) 
ATXBWRYERKVHTO-UHFFFAOYSA-N

>  <alias>  (3) 
A3522a

>  <name>  (3) 
A3522a

>  <smiles>  (3) 
COCC(=O)Nc1c(Cl)cc(C)cc1OCc1ncccn1

>  <path>  (3) 
/opt/xchem-fragalysis-2/maxwin/2A_HIPPO/A71EV2A_P3only_20241211/aligned_files/A3522a/A3522a_hippo.pdb

>  <distance_score>  (3) 
None

>  <energy_score>  (3) 
None

>  <compound>  (3) 
ATXBWRYERKVHTO-UHFFFAOYSA-N

>  <compound_id>  (3) 
122446

>  <target>  (3) 
A71EV2A

$$$$
A71EV2A-x3546_A_201_v1
     RDKit          3D

 21 22  0  0  0  0  0  0  0  0999 V2000
    9.8880   16.9400   19.5790 O   0  0  0  0  0  0  0  0  0  0  0  0
   10.2630   15.7770   19.7940 C   0  0  0  0  0  0  0  0  0  0  0  0
   10.6860   14.9720   18.8420 N   0  0  0  0  0  0  0  0  0  0  0  0
   10.3110   15.2110   21.2040 C   0  0  1  0  0  0  0  0  0  0  0  0
   11.4120   15.8860   22.0410 C   0  0  0  0  0  0  0  0  0  0  0  0
   11.4500   15.3670   23.4860 C   0  0  0  0  0  0  0  0  0  0  0  0
   10.0680   15.3850   24.1270 C   0  0  0  0  0  0  0  0  0  0  0  0
    8.9660   15.3140   21.9270 C   0  0  0  0  0  0  0  0  0  0  0  0
    9.0820   14.7160   23.2620 N   0  0  0  0  0  0  0  0  0  0  0  0
    8.3700   13.6180   23.5990 C   0  0  0  0  0  0  0  0  0  0  0  0
    7.5240   13.1420   22.8580 O   0  0  0  0  0  0  0  0  0  0  0  0
    8.6810   13.0150   24.9590 C   0  0  0  0  0  0  0  0  0  0  0  0
    7.7390   11.9000   25.3470 C   0  0  0  0  0  0  0  0  0  0  0  0
    7.9220   10.6090   24.8500 C   0  0  0  0  0  0  0  0  0  0  0  0
    8.9770   10.4760   23.9820 O   0  0  0  0  0  0  0  0  0  0  0  0
    9.3140    9.1640   23.5190 C   0  0  0  0  0  0  0  0  0  0  0  0
    6.7210   12.1250   26.2730 C   0  0  0  0  0  0  0  0  0  0  0  0
    5.9160   11.0810   26.6470 C   0  0  0  0  0  0  0  0  0  0  0  0
    4.8510   11.3540   27.4480 F   0  0  0  0  0  0  0  0  0  0  0  0
    6.0810    9.8050   26.1820 C   0  0  0  0  0  0  0  0  0  0  0  0
    7.0980    9.5670   25.2690 C   0  0  0  0  0  0  0  0  0  0  0  0
  2  1  2  0
  3  2  1  0
  4  2  1  6
  5  4  1  0
  6  5  1  0
  7  6  1  0
  8  4  1  0
  9  8  1  0
  9  7  1  0
 10  9  1  0
 11 10  2  0
 12 10  1  0
 13 12  1  0
 14 13  2  0
 15 14  1  0
 16 15  1  0
 17 13  1  0
 18 17  2  0
 19 18  1  0
 20 18  1  0
 21 20  2  0
 21 14  1  0
M  END
>  <id>  (4) 
207365

>  <inchikey>  (4) 
OAXWWUQUJMBBQP-JTQLQIEISA-N

>  <alias>  (4) 
A3546a

>  <name>  (4) 
A3546a

>  <smiles>  (4) 
COc1ccc(F)cc1CC(=O)N1CCC[C@H](C(N)=O)C1

>  <path>  (4) 
/opt/xchem-fragalysis-2/maxwin/2A_HIPPO/A71EV2A_P3only_20241211/aligned_files/A3546a/A3546a.pdb

>  <distance_score>  (4) 
None

>  <energy_score>  (4) 
None

>  <compound>  (4) 
OAXWWUQUJMBBQP-UHFFFAOYSA-N

>  <compound_id>  (4) 
122447

>  <target>  (4) 
A71EV2A

$$$$
A71EV2A-x3548_A_201_v1
     RDKit          3D

 20 21  0  0  0  0  0  0  0  0999 V2000
   10.0130   16.9990   19.4080 O   0  0  0  0  0  0  0  0  0  0  0  0
   10.3710   15.8340   19.5860 C   0  0  0  0  0  0  0  0  0  0  0  0
   10.6680   15.0200   18.5910 N   0  0  0  0  0  0  0  0  0  0  0  0
   10.4940   15.2570   20.9860 C   0  0  1  0  0  0  0  0  0  0  0  0
   11.4060   16.1310   21.8600 C   0  0  0  0  0  0  0  0  0  0  0  0
   11.4630   15.6240   23.3010 C   0  0  0  0  0  0  0  0  0  0  0  0
   10.0660   15.5140   23.8890 C   0  0  0  0  0  0  0  0  0  0  0  0
    9.1090   15.2230   21.6440 C   0  0  0  0  0  0  0  0  0  0  0  0
    9.1850   14.7180   23.0190 N   0  0  0  0  0  0  0  0  0  0  0  0
    8.4450   13.6630   23.4420 C   0  0  0  0  0  0  0  0  0  0  0  0
    7.6060   13.1240   22.7290 O   0  0  0  0  0  0  0  0  0  0  0  0
    8.6820   13.1900   24.8640 C   0  0  0  0  0  0  0  0  0  0  0  0
    7.8360   11.9900   25.2320 C   0  0  0  0  0  0  0  0  0  0  0  0
    8.1050   10.7180   24.7090 C   0  0  0  0  0  0  0  0  0  0  0  0
    9.1960   10.6390   23.8850 O   0  0  0  0  0  0  0  0  0  0  0  0
    9.5380    9.3660   23.3480 C   0  0  0  0  0  0  0  0  0  0  0  0
    6.8120   12.0650   26.1590 C   0  0  0  0  0  0  0  0  0  0  0  0
    6.0790   11.0290   26.5760 N   0  0  0  0  0  0  0  0  0  0  0  0
    6.3490    9.8390   26.0370 C   0  0  0  0  0  0  0  0  0  0  0  0
    7.3420    9.6310   25.0970 C   0  0  0  0  0  0  0  0  0  0  0  0
  2  1  2  0
  3  2  1  0
  4  2  1  6
  5  4  1  0
  6  5  1  0
  7  6  1  0
  8  4  1  0
  9  8  1  0
  9  7  1  0
 10  9  1  0
 11 10  2  0
 12 10  1  0
 13 12  1  0
 14 13  2  0
 15 14  1  0
 16 15  1  0
 17 13  1  0
 18 17  2  0
 19 18  1  0
 20 19  2  0
 20 14  1  0
M  END
>  <id>  (5) 
207366

>  <inchikey>  (5) 
ZKUXUDCBALXGFV-JTQLQIEISA-N

>  <alias>  (5) 
A3548a

>  <name>  (5) 
A3548a

>  <smiles>  (5) 
COc1ccncc1CC(=O)N1CCC[C@H](C(N)=O)C1

>  <path>  (5) 
/opt/xchem-fragalysis-2/maxwin/2A_HIPPO/A71EV2A_P3only_20241211/aligned_files/A3548a/A3548a.pdb

>  <distance_score>  (5) 
None

>  <energy_score>  (5) 
None

>  <compound>  (5) 
ZKUXUDCBALXGFV-UHFFFAOYSA-N

>  <compound_id>  (5) 
125

>  <target>  (5) 
A71EV2A

$$$$
A71EV2A-x3550_A_203_v1
     RDKit          3D

 21 22  0  0  0  0  0  0  0  0999 V2000
    9.9710   17.0240   19.3570 O   0  0  0  0  0  0  0  0  0  0  0  0
   10.3780   15.8820   19.6150 C   0  0  0  0  0  0  0  0  0  0  0  0
   10.6360   14.9860   18.6780 N   0  0  0  0  0  0  0  0  0  0  0  0
   10.5030   15.4000   21.0490 C   0  0  2  0  0  0  0  0  0  0  0  0
    9.0840   15.1180   21.5690 C   0  0  0  0  0  0  0  0  0  0  0  0
   11.1990   16.4590   21.9400 C   0  0  0  0  0  0  0  0  0  0  0  0
   10.5790   16.5450   23.3440 C   0  0  0  0  0  0  0  0  0  0  0  0
   10.1090   15.1850   23.8580 C   0  0  2  0  0  0  0  0  0  0  0  0
   11.2770   14.2160   24.0500 C   0  0  0  0  0  0  0  0  0  0  0  0
    9.0760   14.6260   22.9570 N   0  0  0  0  0  0  0  0  0  0  0  0
    8.0790   13.7820   23.3540 C   0  0  0  0  0  0  0  0  0  0  0  0
    7.2290   13.3870   22.5590 O   0  0  0  0  0  0  0  0  0  0  0  0
    8.0420   13.3720   24.8140 C   0  0  0  0  0  0  0  0  0  0  0  0
    7.1400   12.1880   25.0690 C   0  0  0  0  0  0  0  0  0  0  0  0
    7.5020   10.9000   24.6570 C   0  0  0  0  0  0  0  0  0  0  0  0
    8.6180   10.8110   23.8560 O   0  0  0  0  0  0  0  0  0  0  0  0
    9.0690    9.5000   23.4900 C   0  0  0  0  0  0  0  0  0  0  0  0
    5.9790   12.3370   25.8320 C   0  0  0  0  0  0  0  0  0  0  0  0
    5.2210   11.2340   26.2030 C   0  0  0  0  0  0  0  0  0  0  0  0
    5.6040    9.9820   25.8220 C   0  0  0  0  0  0  0  0  0  0  0  0
    6.7410    9.8040   25.0400 C   0  0  0  0  0  0  0  0  0  0  0  0
  2  1  2  0
  3  2  1  0
  4  2  1  6
  5  4  1  0
  6  4  1  0
  7  6  1  0
  8  7  1  0
  8  9  1  6
 10  5  1  0
 10  8  1  0
 11 10  1  0
 12 11  2  0
 13 11  1  0
 14 13  1  0
 15 14  2  0
 16 15  1  0
 17 16  1  0
 18 14  1  0
 19 18  2  0
 20 19  1  0
 21 20  2  0
 21 15  1  0
M  END
>  <id>  (6) 
207367

>  <inchikey>  (6) 
XJRJYHVAUXLXKS-AAEUAGOBSA-N

>  <alias>  (6) 
A3550a

>  <name>  (6) 
A3550a

>  <smiles>  (6) 
COc1ccccc1CC(=O)N1C[C@@H](C(N)=O)CC[C@@H]1C

>  <path>  (6) 
/opt/xchem-fragalysis-2/maxwin/2A_HIPPO/A71EV2A_P3only_20241211/aligned_files/A3550a/A3550a.pdb

>  <distance_score>  (6) 
None

>  <energy_score>  (6) 
None

>  <compound>  (6) 
XJRJYHVAUXLXKS-UHFFFAOYSA-N

>  <compound_id>  (6) 
122448

>  <target>  (6) 
A71EV2A

$$$$
A71EV2A-x3550_A_202_v1
     RDKit          3D

 21 22  0  0  0  0  0  0  0  0999 V2000
   16.8590   -0.0730   20.6350 O   0  0  0  0  0  0  0  0  0  0  0  0
   18.0810    0.0150   20.6420 C   0  0  0  0  0  0  0  0  0  0  0  0
   18.7320    1.1660   20.5630 N   0  0  0  0  0  0  0  0  0  0  0  0
   18.9010   -1.2020   20.2970 C   0  0  2  0  0  0  0  0  0  0  0  0
   18.4190   -2.6100   20.4500 C   0  0  0  0  0  0  0  0  0  0  0  0
   20.3190   -1.2600   20.7720 C   0  0  0  0  0  0  0  0  0  0  0  0
   21.0890   -1.9360   19.6400 C   0  0  0  0  0  0  0  0  0  0  0  0
   20.3000   -3.0670   18.8930 C   0  0  2  0  0  0  0  0  0  0  0  0
   20.5970   -2.9580   17.4150 C   0  0  0  0  0  0  0  0  0  0  0  0
   18.8400   -3.1050   19.1580 N   0  0  0  0  0  0  0  0  0  0  0  0
   17.8460   -3.3850   18.2650 C   0  0  0  0  0  0  0  0  0  0  0  0
   18.1000   -3.6810   17.1160 O   0  0  0  0  0  0  0  0  0  0  0  0
   16.3990   -3.4270   18.7410 C   0  0  0  0  0  0  0  0  0  0  0  0
   15.6030   -4.5500   18.1090 C   0  0  0  0  0  0  0  0  0  0  0  0
   16.0130   -5.8840   18.2300 C   0  0  0  0  0  0  0  0  0  0  0  0
   17.2020   -6.0580   18.8810 O   0  0  0  0  0  0  0  0  0  0  0  0
   17.6020   -7.3940   19.2150 C   0  0  0  0  0  0  0  0  0  0  0  0
   14.4110   -4.2860   17.4450 C   0  0  0  0  0  0  0  0  0  0  0  0
   13.6530   -5.3050   16.9020 C   0  0  0  0  0  0  0  0  0  0  0  0
   14.0650   -6.6210   17.0420 C   0  0  0  0  0  0  0  0  0  0  0  0
   15.2530   -6.9110   17.6950 C   0  0  0  0  0  0  0  0  0  0  0  0
  2  1  2  0
  3  2  1  0
  4  2  1  1
  5  4  1  0
  6  4  1  0
  7  6  1  0
  8  7  1  0
  8  9  1  6
 10  8  1  0
 10  5  1  0
 11 10  1  0
 12 11  2  0
 13 11  1  0
 14 13  1  0
 15 14  2  0
 16 15  1  0
 17 16  1  0
 18 14  1  0
 19 18  2  0
 20 19  1  0
 21 20  2  0
 21 15  1  0
M  END
>  <id>  (7) 
207368

>  <inchikey>  (7) 
XJRJYHVAUXLXKS-AAEUAGOBSA-N

>  <alias>  (7) 
A3550b

>  <name>  (7) 
A3550b

>  <smiles>  (7) 
COc1ccccc1CC(=O)N1C[C@@H](C(N)=O)CC[C@@H]1C

>  <path>  (7) 
/opt/xchem-fragalysis-2/maxwin/2A_HIPPO/A71EV2A_P3only_20241211/aligned_files/A3550b/A3550b.pdb

>  <distance_score>  (7) 
None

>  <energy_score>  (7) 
None

>  <compound>  (7) 
XJRJYHVAUXLXKS-UHFFFAOYSA-N

>  <compound_id>  (7) 
122448

>  <target>  (7) 
A71EV2A

$$$$
A71EV2A-x3556_A_201_v1
     RDKit          3D

 21 23  0  0  0  0  0  0  0  0999 V2000
    9.8020   16.5440   19.6600 O   0  0  0  0  0  0  0  0  0  0  0  0
   10.4640   15.5110   19.7990 C   0  0  0  0  0  0  0  0  0  0  0  0
   10.9360   14.8190   18.7740 N   0  0  0  0  0  0  0  0  0  0  0  0
   10.7300   14.9240   21.1750 C   0  0  1  0  0  0  0  0  0  0  0  0
   11.7010   15.7280   22.0560 C   0  0  0  0  0  0  0  0  0  0  0  0
   11.4430   15.1940   23.4630 C   0  0  0  0  0  0  0  0  0  0  0  0
    9.4770   14.8540   22.0520 C   0  0  0  0  0  0  0  0  0  0  0  0
   10.0290   14.7740   23.4100 N   0  0  0  0  0  0  0  0  0  0  0  0
    9.3440   14.4320   24.5210 C   0  0  0  0  0  0  0  0  0  0  0  0
    9.8730   14.4020   25.6210 O   0  0  0  0  0  0  0  0  0  0  0  0
    7.8660   14.1330   24.3550 C   0  0  0  0  0  0  0  0  0  0  0  0
    7.4140   12.8900   25.0920 C   0  0  0  0  0  0  0  0  0  0  0  0
    6.4890   12.9980   26.1290 C   0  0  0  0  0  0  0  0  0  0  0  0
    5.9280   11.8750   26.7230 C   0  0  0  0  0  0  0  0  0  0  0  0
    6.2980   10.6040   26.3120 C   0  0  0  0  0  0  0  0  0  0  0  0
    7.2570   10.4540   25.2950 C   0  0  0  0  0  0  0  0  0  0  0  0
    7.8130   11.5990   24.6860 C   0  0  0  0  0  0  0  0  0  0  0  0
    8.7290   11.0840   23.7340 C   0  0  0  0  0  0  0  0  0  0  0  0
    7.7860    9.2930   24.7680 N   0  0  0  0  0  0  0  0  0  0  0  0
    8.6740    9.7500   23.8360 N   0  0  0  0  0  0  0  0  0  0  0  0
    9.5450    8.8070   23.1330 C   0  0  0  0  0  0  0  0  0  0  0  0
  2  1  2  0
  3  2  1  0
  4  2  1  6
  5  4  1  0
  6  5  1  0
  7  4  1  0
  8  7  1  0
  8  6  1  0
  9  8  1  0
 10  9  2  0
 11  9  1  0
 12 11  1  0
 13 12  2  0
 14 13  1  0
 15 14  2  0
 16 15  1  0
 17 16  1  0
 17 12  1  0
 18 17  2  0
 19 16  2  0
 20 19  1  0
 20 18  1  0
 21 20  1  0
M  END
>  <id>  (8) 
207369

>  <inchikey>  (8) 
BRQFGLOHPDECRA-NSHDSACASA-N

>  <alias>  (8) 
A3556a

>  <name>  (8) 
A3556a

>  <smiles>  (8) 
Cn1cc2c(CC(=O)N3CC[C@H](C(N)=O)C3)cccc2n1

>  <path>  (8) 
/opt/xchem-fragalysis-2/maxwin/2A_HIPPO/A71EV2A_P3only_20241211/aligned_files/A3556a/A3556a.pdb

>  <distance_score>  (8) 
None

>  <energy_score>  (8) 
None

>  <compound>  (8) 
BRQFGLOHPDECRA-UHFFFAOYSA-N

>  <compound_id>  (8) 
122449

>  <target>  (8) 
A71EV2A

$$$$
A71EV2A-x3557_A_201_v1
     RDKit          3D

 22 23  0  0  0  0  0  0  0  0999 V2000
    9.8190   16.8530   19.4530 O   0  0  0  0  0  0  0  0  0  0  0  0
   10.2550   15.7170   19.6790 C   0  0  0  0  0  0  0  0  0  0  0  0
   10.5530   14.8480   18.7220 N   0  0  0  0  0  0  0  0  0  0  0  0
   10.3650   15.1880   21.0960 C   0  0  1  0  0  0  0  0  0  0  0  0
   11.5070   15.8540   21.8790 C   0  0  0  0  0  0  0  0  0  0  0  0
   11.5980   15.2760   23.2930 C   0  0  0  0  0  0  0  0  0  0  0  0
   10.2460   15.3550   23.9960 C   0  0  0  0  0  0  0  0  0  0  0  0
    9.0300   15.3100   21.8320 C   0  0  0  0  0  0  0  0  0  0  0  0
    9.1780   14.7510   23.1770 N   0  0  0  0  0  0  0  0  0  0  0  0
    8.4120   13.7090   23.5560 C   0  0  0  0  0  0  0  0  0  0  0  0
    7.5080   13.2690   22.8590 O   0  0  0  0  0  0  0  0  0  0  0  0
    8.7490   13.1160   24.9070 C   0  0  0  0  0  0  0  0  0  0  0  0
    7.7000   12.1270   25.3490 C   0  0  0  0  0  0  0  0  0  0  0  0
    6.6740   12.5050   26.2080 C   0  0  0  0  0  0  0  0  0  0  0  0
    5.7870   11.5730   26.7110 C   0  0  0  0  0  0  0  0  0  0  0  0
    7.8040   10.7840   24.9790 C   0  0  0  0  0  0  0  0  0  0  0  0
    8.8250   10.5110   24.1040 O   0  0  0  0  0  0  0  0  0  0  0  0
    9.1130    9.1400   23.7850 C   0  0  0  0  0  0  0  0  0  0  0  0
    6.9220    9.8460   25.4830 C   0  0  0  0  0  0  0  0  0  0  0  0
    5.9120   10.2480   26.3430 C   0  0  0  0  0  0  0  0  0  0  0  0
    5.0440    9.2680   26.7490 O   0  0  0  0  0  0  0  0  0  0  0  0
    3.9550    9.6440   27.6060 C   0  0  0  0  0  0  0  0  0  0  0  0
  2  1  2  0
  3  2  1  0
  4  2  1  6
  5  4  1  0
  6  5  1  0
  7  6  1  0
  8  4  1  0
  9  8  1  0
  9  7  1  0
 10  9  1  0
 11 10  2  0
 12 10  1  0
 13 12  1  0
 14 13  2  0
 15 14  1  0
 16 13  1  0
 17 16  1  0
 18 17  1  0
 19 16  2  0
 20 19  1  0
 20 15  2  0
 21 20  1  0
 22 21  1  0
M  END
>  <id>  (9) 
207370

>  <inchikey>  (9) 
QQFWJWWIQVMKHZ-LBPRGKRZSA-N

>  <alias>  (9) 
A3557a

>  <name>  (9) 
A3557a

>  <smiles>  (9) 
COc1ccc(CC(=O)N2CCC[C@H](C(N)=O)C2)c(OC)c1

>  <path>  (9) 
/opt/xchem-fragalysis-2/maxwin/2A_HIPPO/A71EV2A_P3only_20241211/aligned_files/A3557a/A3557a_hippo.pdb

>  <distance_score>  (9) 
None

>  <energy_score>  (9) 
None

>  <compound>  (9) 
QQFWJWWIQVMKHZ-UHFFFAOYSA-N

>  <compound_id>  (9) 
122450

>  <target>  (9) 
A71EV2A

$$$$
A71EV2A-x3564_A_201_v1
     RDKit          3D

 19 20  0  0  0  0  0  0  0  0999 V2000
   11.9800   16.8110   18.8300 O   0  0  0  0  0  0  0  0  0  0  0  0
   11.7340   15.7000   19.3300 C   0  0  0  0  0  0  0  0  0  0  0  0
   11.1980   14.6820   18.6260 N   0  0  0  0  0  0  0  0  0  0  0  0
   12.0420   15.4780   20.7820 C   0  0  0  0  0  0  0  0  0  0  0  0
   12.9740   16.2970   21.4140 C   0  0  0  0  0  0  0  0  0  0  0  0
   13.3020   16.1910   22.7060 N   0  0  0  0  0  0  0  0  0  0  0  0
   12.6960   15.2350   23.4180 C   0  0  0  0  0  0  0  0  0  0  0  0
   11.4180   14.4970   21.5480 C   0  0  0  0  0  0  0  0  0  0  0  0
   11.7450   14.3650   22.8950 C   0  0  0  0  0  0  0  0  0  0  0  0
   11.1130   13.3350   23.7760 C   0  0  0  0  0  0  0  0  0  0  0  0
   11.7770   12.7370   24.6110 O   0  0  0  0  0  0  0  0  0  0  0  0
    9.7800   13.1300   23.6100 N   0  0  0  0  0  0  0  0  0  0  0  0
    8.9070   12.3080   24.3850 C   0  0  0  0  0  0  0  0  0  0  0  0
    8.9190   10.9070   24.2180 C   0  0  0  0  0  0  0  0  0  0  0  0
    9.8820   10.2060   23.2960 C   0  0  0  0  0  0  0  0  0  0  0  0
    8.0110   12.9160   25.2680 C   0  0  0  0  0  0  0  0  0  0  0  0
    7.1140   12.1340   25.9790 C   0  0  0  0  0  0  0  0  0  0  0  0
    7.1000   10.7650   25.8070 C   0  0  0  0  0  0  0  0  0  0  0  0
    7.9930   10.1610   24.9450 C   0  0  0  0  0  0  0  0  0  0  0  0
  2  1  2  0
  3  2  1  0
  4  2  1  0
  5  4  2  0
  6  5  1  0
  7  6  2  0
  8  4  1  0
  9  8  2  0
  9  7  1  0
 10  9  1  0
 11 10  2  0
 12 10  1  0
 13 12  1  0
 14 13  2  0
 15 14  1  0
 16 13  1  0
 17 16  2  0
 18 17  1  0
 19 18  2  0
 19 14  1  0
M  END
>  <id>  (10) 
207371

>  <inchikey>  (10) 
UWNHLJGYVVRCPX-UHFFFAOYSA-N

>  <alias>  (10) 
A3564a

>  <name>  (10) 
A3564a

>  <smiles>  (10) 
Cc1ccccc1NC(=O)c1cncc(C(N)=O)c1

>  <path>  (10) 
/opt/xchem-fragalysis-2/maxwin/2A_HIPPO/A71EV2A_P3only_20241211/aligned_files/A3564a/A3564a.pdb

>  <distance_score>  (10) 
None

>  <energy_score>  (10) 
None

>  <compound>  (10) 
UWNHLJGYVVRCPX-UHFFFAOYSA-N

>  <compound_id>  (10) 
122451

>  <target>  (10) 
A71EV2A

$$$$
A71EV2A-x3568_A_201_v1
     RDKit          3D

 20 22  0  0  0  0  0  0  0  0999 V2000
   10.2670   13.8670   25.2490 O   0  0  0  0  0  0  0  0  0  0  0  0
   10.1480   13.1100   24.3040 C   0  0  0  0  0  0  0  0  0  0  0  0
    9.2000   11.9560   24.3970 C   0  0  0  0  0  0  0  0  0  0  0  0
    9.2210   10.6940   23.8510 C   0  0  0  0  0  0  0  0  0  0  0  0
    8.1980    9.9450   24.3600 N   0  0  0  0  0  0  0  0  0  0  0  0
    7.4690   10.7140   25.2350 C   0  0  0  0  0  0  0  0  0  0  0  0
    8.0610   11.9900   25.2860 C   0  0  0  0  0  0  0  0  0  0  0  0
    7.4980   12.9500   26.1160 C   0  0  0  0  0  0  0  0  0  0  0  0
    6.3950   12.6290   26.8860 C   0  0  0  0  0  0  0  0  0  0  0  0
    6.3590   10.4040   25.9980 C   0  0  0  0  0  0  0  0  0  0  0  0
    5.8290   11.3560   26.8590 C   0  0  0  0  0  0  0  0  0  0  0  0
    4.7300   10.9890   27.8140 C   0  0  0  0  0  0  0  0  0  0  0  0
   10.8720   13.2450   23.1880 N   0  0  0  0  0  0  0  0  0  0  0  0
   10.4370   14.0220   22.0520 C   0  0  0  0  0  0  0  0  0  0  0  0
   11.6040   14.6450   21.3150 C   0  0  0  0  0  0  0  0  0  0  0  0
   10.6370   15.5650   20.6890 C   0  0  0  0  0  0  0  0  0  0  0  0
   10.0520   16.5890   21.4010 N   0  0  0  0  0  0  0  0  0  0  0  0
    9.1210   17.0090   20.6330 C   0  0  0  0  0  0  0  0  0  0  0  0
    9.0290   16.3800   19.4530 O   0  0  0  0  0  0  0  0  0  0  0  0
   10.0250   15.4620   19.5090 C   0  0  0  0  0  0  0  0  0  0  0  0
  2  1  2  0
  3  2  1  0
  4  3  2  0
  5  4  1  0
  6  5  1  0
  7  6  2  0
  7  3  1  0
  8  7  1  0
  9  8  2  0
 10  6  1  0
 11 10  2  0
 11  9  1  0
 12 11  1  0
 13  2  1  0
 14 13  1  0
 15 14  1  0
 16 15  1  0
 17 16  1  0
 18 17  2  0
 19 18  1  0
 20 16  2  0
 20 19  1  0
M  END
>  <id>  (11) 
207372

>  <inchikey>  (11) 
LZYMZWBOIHZTRB-UHFFFAOYSA-N

>  <alias>  (11) 
A3568a

>  <name>  (11) 
A3568a

>  <smiles>  (11) 
Cc1ccc2c(C(=O)NCCc3cocn3)c[nH]c2c1

>  <path>  (11) 
/opt/xchem-fragalysis-2/maxwin/2A_HIPPO/A71EV2A_P3only_20241211/aligned_files/A3568a/A3568a.pdb

>  <distance_score>  (11) 
None

>  <energy_score>  (11) 
None

>  <compound>  (11) 
LZYMZWBOIHZTRB-UHFFFAOYSA-N

>  <compound_id>  (11) 
122452

>  <target>  (11) 
A71EV2A

$$$$
A71EV2A-x3575_A_201_v1
     RDKit          3D

 22 23  0  0  0  0  0  0  0  0999 V2000
    9.8760   16.9870   19.5030 O   0  0  0  0  0  0  0  0  0  0  0  0
   10.2540   15.8290   19.7270 C   0  0  0  0  0  0  0  0  0  0  0  0
   10.5820   14.9760   18.7750 N   0  0  0  0  0  0  0  0  0  0  0  0
   10.3890   15.3110   21.1480 C   0  0  1  0  0  0  0  0  0  0  0  0
   11.5120   16.0370   21.9120 C   0  0  0  0  0  0  0  0  0  0  0  0
   11.6000   15.6090   23.3840 C   0  0  0  0  0  0  0  0  0  0  0  0
   10.2380   15.6210   24.0580 C   0  0  0  0  0  0  0  0  0  0  0  0
    9.0780   15.4890   21.9030 C   0  0  0  0  0  0  0  0  0  0  0  0
    9.2460   14.9100   23.2370 N   0  0  0  0  0  0  0  0  0  0  0  0
    8.5820   13.7850   23.5680 C   0  0  0  0  0  0  0  0  0  0  0  0
    7.6940   13.3220   22.8680 O   0  0  0  0  0  0  0  0  0  0  0  0
    8.9940   13.1300   24.8710 C   0  0  0  0  0  0  0  0  0  0  0  0
    8.2230   11.8530   25.0930 C   0  0  0  0  0  0  0  0  0  0  0  0
    7.0870   11.8230   25.9020 C   0  0  0  0  0  0  0  0  0  0  0  0
    6.6590   12.9940   26.5030 O   0  0  0  0  0  0  0  0  0  0  0  0
    5.6540   13.7530   25.8210 C   0  0  0  0  0  0  0  0  0  0  0  0
    8.6260   10.6690   24.4760 C   0  0  0  0  0  0  0  0  0  0  0  0
    7.9430    9.4880   24.6940 C   0  0  0  0  0  0  0  0  0  0  0  0
    6.8300    9.4660   25.5170 C   0  0  0  0  0  0  0  0  0  0  0  0
    6.3730   10.6410   26.1160 C   0  0  0  0  0  0  0  0  0  0  0  0
    5.1250   10.6290   26.8270 C   0  0  0  0  0  0  0  0  0  0  0  0
    4.1330   10.6690   27.3910 N   0  0  0  0  0  0  0  0  0  0  0  0
  2  1  2  0
  3  2  1  0
  4  2  1  6
  5  4  1  0
  6  5  1  0
  7  6  1  0
  8  4  1  0
  9  8  1  0
  9  7  1  0
 10  9  1  0
 11 10  2  0
 12 10  1  0
 13 12  1  0
 14 13  2  0
 15 14  1  0
 16 15  1  0
 17 13  1  0
 18 17  2  0
 19 18  1  0
 20 19  2  0
 20 14  1  0
 21 20  1  0
 22 21  3  0
M  END
>  <id>  (12) 
207373

>  <inchikey>  (12) 
VDGDDJZRHZPZCA-ZDUSSCGKSA-N

>  <alias>  (12) 
A3575a

>  <name>  (12) 
A3575a

>  <smiles>  (12) 
COc1c(C#N)cccc1CC(=O)N1CCC[C@H](C(N)=O)C1

>  <path>  (12) 
/opt/xchem-fragalysis-2/maxwin/2A_HIPPO/A71EV2A_P3only_20241211/aligned_files/A3575a/A3575a.pdb

>  <distance_score>  (12) 
None

>  <energy_score>  (12) 
None

>  <compound>  (12) 
VDGDDJZRHZPZCA-UHFFFAOYSA-N

>  <compound_id>  (12) 
122453

>  <target>  (12) 
A71EV2A

$$$$
A71EV2A-x3579_A_201_v1
     RDKit          3D

 19 20  0  0  0  0  0  0  0  0999 V2000
   10.9140   14.6870   25.4000 O   0  0  0  0  0  0  0  0  0  0  0  0
   10.8080   14.8700   24.1890 C   0  0  0  0  0  0  0  0  0  0  0  0
   11.9920   15.3490   23.3870 C   0  0  0  0  0  0  0  0  0  0  0  0
   11.6460   15.9190   22.0100 C   0  0  0  0  0  0  0  0  0  0  0  0
   10.6720   14.9860   21.2700 C   0  0  2  0  0  0  0  0  0  0  0  0
   10.3990   15.4830   19.8580 C   0  0  0  0  0  0  0  0  0  0  0  0
    9.8380   16.5660   19.6610 O   0  0  0  0  0  0  0  0  0  0  0  0
   10.7640   14.6780   18.8750 N   0  0  0  0  0  0  0  0  0  0  0  0
    9.3810   14.9100   22.0960 C   0  0  0  0  0  0  0  0  0  0  0  0
    9.6490   14.6490   23.5160 N   0  0  0  0  0  0  0  0  0  0  0  0
    8.4800   14.1480   24.2480 C   0  0  0  0  0  0  0  0  0  0  0  0
    8.4230   12.6390   24.3480 C   0  0  0  0  0  0  0  0  0  0  0  0
    7.4200   12.0390   25.1120 C   0  0  0  0  0  0  0  0  0  0  0  0
    6.5970   12.9170   25.7630 O   0  0  0  0  0  0  0  0  0  0  0  0
    5.6340   12.3880   26.6900 C   0  0  0  0  0  0  0  0  0  0  0  0
    9.3180   11.8110   23.6700 C   0  0  0  0  0  0  0  0  0  0  0  0
    9.2010   10.4350   23.7430 C   0  0  0  0  0  0  0  0  0  0  0  0
    8.2150    9.8660   24.5050 C   0  0  0  0  0  0  0  0  0  0  0  0
    7.3170   10.6600   25.1980 C   0  0  0  0  0  0  0  0  0  0  0  0
  2  1  2  0
  3  2  1  0
  4  3  1  0
  5  4  1  0
  5  6  1  6
  7  6  2  0
  8  6  1  0
  9  5  1  0
 10  9  1  0
 10  2  1  0
 11 10  1  0
 12 11  1  0
 13 12  2  0
 14 13  1  0
 15 14  1  0
 16 12  1  0
 17 16  2  0
 18 17  1  0
 19 18  2  0
 19 13  1  0
M  END
>  <id>  (13) 
207374

>  <inchikey>  (13) 
PBLXCFVVIRAUAX-NSHDSACASA-N

>  <alias>  (13) 
A3579a

>  <name>  (13) 
A3579a

>  <smiles>  (13) 
COc1ccccc1CN1C[C@@H](C(N)=O)CCC1=O

>  <path>  (13) 
/opt/xchem-fragalysis-2/maxwin/2A_HIPPO/A71EV2A_P3only_20241211/aligned_files/A3579a/A3579a.pdb

>  <distance_score>  (13) 
None

>  <energy_score>  (13) 
None

>  <compound>  (13) 
PBLXCFVVIRAUAX-UHFFFAOYSA-N

>  <compound_id>  (13) 
122454

>  <target>  (13) 
A71EV2A

$$$$
A71EV2A-x3581_A_201_v1
     RDKit          3D

 19 20  0  0  0  0  0  0  0  0999 V2000
    9.8170   16.5990   19.5430 O   0  0  0  0  0  0  0  0  0  0  0  0
   10.4740   15.5570   19.6880 C   0  0  0  0  0  0  0  0  0  0  0  0
   10.8980   14.8280   18.6680 N   0  0  0  0  0  0  0  0  0  0  0  0
   10.7790   14.9980   21.0680 C   0  0  1  0  0  0  0  0  0  0  0  0
   11.5000   15.9200   22.0700 C   0  0  0  0  0  0  0  0  0  0  0  0
   11.2880   15.2040   23.4040 C   0  0  0  0  0  0  0  0  0  0  0  0
    9.5120   14.6180   21.8450 C   0  0  0  0  0  0  0  0  0  0  0  0
    9.9580   14.5870   23.2450 N   0  0  0  0  0  0  0  0  0  0  0  0
    9.2140   14.1040   24.2670 C   0  0  0  0  0  0  0  0  0  0  0  0
    9.5800   14.1900   25.4330 O   0  0  0  0  0  0  0  0  0  0  0  0
    7.8380   13.5650   23.9100 C   0  0  0  0  0  0  0  0  0  0  0  0
    7.3430   12.4690   24.8290 C   0  0  0  0  0  0  0  0  0  0  0  0
    7.7230   11.1430   24.6140 C   0  0  0  0  0  0  0  0  0  0  0  0
    8.6560   10.9640   23.6260 O   0  0  0  0  0  0  0  0  0  0  0  0
    9.1900    9.6450   23.4420 C   0  0  0  0  0  0  0  0  0  0  0  0
    6.4120   12.7330   25.8340 C   0  0  0  0  0  0  0  0  0  0  0  0
    5.8570   11.7040   26.5830 C   0  0  0  0  0  0  0  0  0  0  0  0
    6.2240   10.3980   26.3400 C   0  0  0  0  0  0  0  0  0  0  0  0
    7.1540   10.1090   25.3500 C   0  0  0  0  0  0  0  0  0  0  0  0
  2  1  2  0
  3  2  1  0
  4  2  1  6
  5  4  1  0
  6  5  1  0
  7  4  1  0
  8  7  1  0
  8  6  1  0
  9  8  1  0
 10  9  2  0
 11  9  1  0
 12 11  1  0
 13 12  2  0
 14 13  1  0
 15 14  1  0
 16 12  1  0
 17 16  2  0
 18 17  1  0
 19 18  2  0
 19 13  1  0
M  END
>  <id>  (14) 
207375

>  <inchikey>  (14) 
ACVLTQNPXWHBQP-NSHDSACASA-N

>  <alias>  (14) 
A3581a

>  <name>  (14) 
A3581a

>  <smiles>  (14) 
COc1ccccc1CC(=O)N1CC[C@H](C(N)=O)C1

>  <path>  (14) 
/opt/xchem-fragalysis-2/maxwin/2A_HIPPO/A71EV2A_P3only_20241211/aligned_files/A3581a/A3581a.pdb

>  <distance_score>  (14) 
None

>  <energy_score>  (14) 
None

>  <compound>  (14) 
ACVLTQNPXWHBQP-UHFFFAOYSA-N

>  <compound_id>  (14) 
122455

>  <target>  (14) 
A71EV2A

$$$$
A71EV2A-x3585_A_201_v1
     RDKit          3D

 23 25  0  0  0  0  0  0  0  0999 V2000
    9.7200   16.9380   19.5970 O   0  0  0  0  0  0  0  0  0  0  0  0
   10.2270   15.8450   19.8680 C   0  0  0  0  0  0  0  0  0  0  0  0
   10.7280   15.0370   18.9510 N   0  0  0  0  0  0  0  0  0  0  0  0
   10.2800   15.3380   21.2990 C   0  0  1  0  0  0  0  0  0  0  0  0
   11.3900   16.0300   22.1030 C   0  0  0  0  0  0  0  0  0  0  0  0
   11.4470   15.4960   23.5380 C   0  0  0  0  0  0  0  0  0  0  0  0
   10.0790   15.5900   24.2220 C   0  0  0  0  0  0  0  0  0  0  0  0
    8.9880   15.6900   22.0460 C   0  0  0  0  0  0  0  0  0  0  0  0
    9.0030   15.0570   23.3670 N   0  0  0  0  0  0  0  0  0  0  0  0
    8.4750   13.8010   23.4910 C   0  0  0  0  0  0  0  0  0  0  0  0
    7.6840   13.3530   22.6710 O   0  0  0  0  0  0  0  0  0  0  0  0
    8.8390   13.1030   24.5970 N   0  0  0  0  0  0  0  0  0  0  0  0
    8.4510   11.7590   24.8240 C   0  0  0  0  0  0  0  0  0  0  0  0
    9.1560   10.7050   24.2510 C   0  0  0  0  0  0  0  0  0  0  0  0
    7.3480   11.4870   25.6470 C   0  0  0  0  0  0  0  0  0  0  0  0
    7.0080   10.1410   25.8720 C   0  0  0  0  0  0  0  0  0  0  0  0
    5.9360   10.1520   26.7110 N   0  0  0  0  0  0  0  0  0  0  0  0
    5.3230    9.0270   27.4070 C   0  0  0  0  0  0  0  0  0  0  0  0
    5.5450   11.4260   27.0070 N   0  0  0  0  0  0  0  0  0  0  0  0
    6.3840   12.2250   26.3830 C   0  0  0  0  0  0  0  0  0  0  0  0
    7.7130    9.1020   25.2690 C   0  0  0  0  0  0  0  0  0  0  0  0
    8.7970    9.3770   24.4440 C   0  0  0  0  0  0  0  0  0  0  0  0
    9.5560    8.2640   23.7590 C   0  0  0  0  0  0  0  0  0  0  0  0
  2  1  2  0
  3  2  1  0
  4  2  1  6
  5  4  1  0
  6  5  1  0
  7  6  1  0
  8  4  1  0
  9  8  1  0
  9  7  1  0
 10  9  1  0
 11 10  2  0
 12 10  1  0
 13 12  1  0
 14 13  2  0
 15 13  1  0
 16 15  2  0
 17 16  1  0
 18 17  1  0
 19 17  1  0
 20 19  2  0
 20 15  1  0
 21 16  1  0
 22 21  2  0
 22 14  1  0
 23 22  1  0
M  END
>  <id>  (15) 
207376

>  <inchikey>  (15) 
SHBNFEQFDBWXOH-NSHDSACASA-N

>  <alias>  (15) 
A3585a

>  <name>  (15) 
A3585a

>  <smiles>  (15) 
Cc1cc(NC(=O)N2CCC[C@H](C(N)=O)C2)c2cnn(C)c2c1

>  <path>  (15) 
/opt/xchem-fragalysis-2/maxwin/2A_HIPPO/A71EV2A_P3only_20241211/aligned_files/A3585a/A3585a.pdb

>  <distance_score>  (15) 
None

>  <energy_score>  (15) 
None

>  <compound>  (15) 
SHBNFEQFDBWXOH-UHFFFAOYSA-N

>  <compound_id>  (15) 
122456

>  <target>  (15) 
A71EV2A

$$$$
A71EV2A-x3587_A_201_v1
     RDKit          3D

 21 22  0  0  0  0  0  0  0  0999 V2000
   10.0640   17.0020   19.4790 O   0  0  0  0  0  0  0  0  0  0  0  0
   10.3370   15.8130   19.6970 C   0  0  0  0  0  0  0  0  0  0  0  0
   10.7480   14.9900   18.7580 N   0  0  0  0  0  0  0  0  0  0  0  0
   10.2890   15.2320   21.1000 C   0  0  1  0  0  0  0  0  0  0  0  0
   11.2490   15.9700   22.0490 C   0  0  0  0  0  0  0  0  0  0  0  0
   11.2020   15.4190   23.4840 C   0  0  0  0  0  0  0  0  0  0  0  0
    9.7670   15.2880   23.9850 C   0  0  0  0  0  0  0  0  0  0  0  0
    8.8870   15.2130   21.7060 C   0  0  0  0  0  0  0  0  0  0  0  0
    8.9320   14.5550   23.0170 N   0  0  0  0  0  0  0  0  0  0  0  0
    7.9740   13.6280   23.3260 C   0  0  0  0  0  0  0  0  0  0  0  0
    7.1870   13.2050   22.4940 O   0  0  0  0  0  0  0  0  0  0  0  0
    7.9010   13.2560   24.6190 N   0  0  0  0  0  0  0  0  0  0  0  0
    7.0990   12.1510   25.0170 C   0  0  0  0  0  0  0  0  0  0  0  0
    5.9770   12.3530   25.8400 C   0  0  0  0  0  0  0  0  0  0  0  0
    5.5760   13.6590   25.9770 O   0  0  0  0  0  0  0  0  0  0  0  0
    4.1760   13.9230   25.9290 C   0  0  0  0  0  0  0  0  0  0  0  0
    7.5280   10.8400   24.8010 C   0  0  0  0  0  0  0  0  0  0  0  0
    8.9700   10.5430   23.8820 Cl  0  0  0  0  0  0  0  0  0  0  0  0
    6.8830    9.7660   25.3770 C   0  0  0  0  0  0  0  0  0  0  0  0
    5.8120    9.9920   26.2230 C   0  0  0  0  0  0  0  0  0  0  0  0
    5.3620   11.2810   26.4660 C   0  0  0  0  0  0  0  0  0  0  0  0
  2  1  2  0
  3  2  1  0
  4  2  1  6
  5  4  1  0
  6  5  1  0
  7  6  1  0
  8  4  1  0
  9  8  1  0
  9  7  1  0
 10  9  1  0
 11 10  2  0
 12 10  1  0
 13 12  1  0
 14 13  2  0
 15 14  1  0
 16 15  1  0
 17 13  1  0
 18 17  1  0
 19 17  2  0
 20 19  1  0
 21 20  2  0
 21 14  1  0
M  END
>  <id>  (16) 
207377

>  <inchikey>  (16) 
BAWQVTYFUSCRSF-VIFPVBQESA-N

>  <alias>  (16) 
A3587a

>  <name>  (16) 
A3587a

>  <smiles>  (16) 
COc1cccc(Cl)c1NC(=O)N1CCC[C@H](C(N)=O)C1

>  <path>  (16) 
/opt/xchem-fragalysis-2/maxwin/2A_HIPPO/A71EV2A_P3only_20241211/aligned_files/A3587a/A3587a.pdb

>  <distance_score>  (16) 
None

>  <energy_score>  (16) 
None

>  <compound>  (16) 
BAWQVTYFUSCRSF-UHFFFAOYSA-N

>  <compound_id>  (16) 
122457

>  <target>  (16) 
A71EV2A

$$$$
A71EV2A-x3593_A_201_v1
     RDKit          3D

 21 23  0  0  0  0  0  0  0  0999 V2000
    8.9650   14.3920   24.8380 O   0  0  0  0  0  0  0  0  0  0  0  0
    9.2980   13.4940   24.0430 C   0  0  0  0  0  0  0  0  0  0  0  0
    8.7530   12.1170   24.1860 C   0  0  0  0  0  0  0  0  0  0  0  0
    7.7030   11.6410   25.0500 C   0  0  0  0  0  0  0  0  0  0  0  0
    6.8580   12.1950   26.0110 C   0  0  0  0  0  0  0  0  0  0  0  0
    5.9770   11.3670   26.6960 C   0  0  0  0  0  0  0  0  0  0  0  0
    5.9370   10.0010   26.4450 C   0  0  0  0  0  0  0  0  0  0  0  0
    6.7600    9.4360   25.4790 C   0  0  0  0  0  0  0  0  0  0  0  0
    7.6300   10.2640   24.7890 C   0  0  0  0  0  0  0  0  0  0  0  0
    8.5770    9.9890   23.8470 N   0  0  0  0  0  0  0  0  0  0  0  0
    8.9980    8.6830   23.3550 C   0  0  0  0  0  0  0  0  0  0  0  0
    9.2530   11.1210   23.4530 N   0  0  0  0  0  0  0  0  0  0  0  0
   10.1660   13.6940   23.0420 N   0  0  0  0  0  0  0  0  0  0  0  0
   11.2080   14.6990   23.2680 C   0  0  1  0  0  0  0  0  0  0  0  0
   12.2680   14.1990   24.2340 C   0  0  0  0  0  0  0  0  0  0  0  0
   11.7850   15.0590   21.9070 C   0  0  0  0  0  0  0  0  0  0  0  0
   10.7800   15.7320   21.0450 C   0  0  0  0  0  0  0  0  0  0  0  0
   10.0860   16.8570   21.4970 N   0  0  0  0  0  0  0  0  0  0  0  0
    9.3050   17.1530   20.5220 C   0  0  0  0  0  0  0  0  0  0  0  0
    9.4230   16.3640   19.4310 O   0  0  0  0  0  0  0  0  0  0  0  0
   10.3680   15.4450   19.8030 C   0  0  0  0  0  0  0  0  0  0  0  0
  2  1  2  0
  3  2  1  0
  4  3  1  0
  5  4  2  0
  6  5  1  0
  7  6  2  0
  8  7  1  0
  9  8  2  0
  9  4  1  0
 10  9  1  0
 11 10  1  0
 12 10  1  0
 12  3  2  0
 13  2  1  0
 14 13  1  0
 14 15  1  1
 16 14  1  0
 17 16  1  0
 18 17  1  0
 19 18  2  0
 20 19  1  0
 21 17  2  0
 21 20  1  0
M  END
>  <id>  (17) 
207378

>  <inchikey>  (17) 
LQNOWDAJBFJAFM-JTQLQIEISA-N

>  <alias>  (17) 
A3593a

>  <name>  (17) 
A3593a

>  <smiles>  (17) 
C[C@@H](Cc1cocn1)NC(=O)c1nn(C)c2ccccc12

>  <path>  (17) 
/opt/xchem-fragalysis-2/maxwin/2A_HIPPO/A71EV2A_P3only_20241211/aligned_files/A3593a/A3593a.pdb

>  <distance_score>  (17) 
None

>  <energy_score>  (17) 
None

>  <compound>  (17) 
LQNOWDAJBFJAFM-UHFFFAOYSA-N

>  <compound_id>  (17) 
122392

>  <target>  (17) 
A71EV2A

$$$$
A71EV2A-x3606_A_201_v1
     RDKit          3D

 26 28  0  0  0  0  0  0  0  0999 V2000
    9.7270   16.7100   19.6100 O   0  0  0  0  0  0  0  0  0  0  0  0
   10.1940   15.5840   19.8130 C   0  0  0  0  0  0  0  0  0  0  0  0
   10.5910   14.7830   18.8380 N   0  0  0  0  0  0  0  0  0  0  0  0
   10.2790   15.0080   21.2140 C   0  0  1  0  0  0  0  0  0  0  0  0
   11.3520   15.7000   22.0740 C   0  0  0  0  0  0  0  0  0  0  0  0
   11.3830   15.1010   23.4830 C   0  0  0  0  0  0  0  0  0  0  0  0
    9.9950   15.1340   24.1160 C   0  0  0  0  0  0  0  0  0  0  0  0
    8.9140   15.1520   21.8970 C   0  0  0  0  0  0  0  0  0  0  0  0
    8.9870   14.5390   23.2230 N   0  0  0  0  0  0  0  0  0  0  0  0
    8.2290   13.4640   23.5220 C   0  0  0  0  0  0  0  0  0  0  0  0
    7.3270   13.0790   22.7940 O   0  0  0  0  0  0  0  0  0  0  0  0
    8.5260   12.8130   24.8540 C   0  0  0  0  0  0  0  0  0  0  0  0
    7.7460   11.5680   25.0790 C   0  0  0  0  0  0  0  0  0  0  0  0
    8.1540   10.3350   24.6460 N   0  0  0  0  0  0  0  0  0  0  0  0
    9.3610    9.9910   23.9020 C   0  0  0  0  0  0  0  0  0  0  0  0
    6.5880   11.3740   25.7930 C   0  0  0  0  0  0  0  0  0  0  0  0
    6.3580    9.9920   25.7260 C   0  0  0  0  0  0  0  0  0  0  0  0
    7.2950    9.3570   25.0390 N   0  0  0  0  0  0  0  0  0  0  0  0
    5.8080   12.3840   26.5590 C   0  0  0  0  0  0  0  0  0  0  0  0
    4.8320   11.9660   27.4580 C   0  0  0  0  0  0  0  0  0  0  0  0
    4.2610   12.8880   28.3140 C   0  0  0  0  0  0  0  0  0  0  0  0
    3.1300   12.3320   29.5180 Cl  0  0  0  0  0  0  0  0  0  0  0  0
    4.6080   14.2260   28.2890 C   0  0  0  0  0  0  0  0  0  0  0  0
    5.5640   14.6250   27.3750 C   0  0  0  0  0  0  0  0  0  0  0  0
    6.0160   16.3130   27.3060 Cl  0  0  0  0  0  0  0  0  0  0  0  0
    6.1570   13.7330   26.5040 C   0  0  0  0  0  0  0  0  0  0  0  0
  2  1  2  0
  3  2  1  0
  4  2  1  6
  5  4  1  0
  6  5  1  0
  7  6  1  0
  8  4  1  0
  9  8  1  0
  9  7  1  0
 10  9  1  0
 11 10  2  0
 12 10  1  0
 13 12  1  0
 14 13  1  0
 15 14  1  0
 16 13  2  0
 17 16  1  0
 18 17  2  0
 18 14  1  0
 19 16  1  0
 20 19  2  0
 21 20  1  0
 22 21  1  0
 23 21  2  0
 24 23  1  0
 25 24  1  0
 26 19  1  0
 26 24  2  0
M  END
>  <id>  (18) 
207379

>  <inchikey>  (18) 
CSGCLFRVJTXKQJ-NSHDSACASA-N

>  <alias>  (18) 
A3606a

>  <name>  (18) 
A3606a

>  <smiles>  (18) 
Cn1ncc(-c2cc(Cl)cc(Cl)c2)c1CC(=O)N1CCC[C@H](C(N)=O)C1

>  <path>  (18) 
/opt/xchem-fragalysis-2/maxwin/2A_HIPPO/A71EV2A_P3only_20241211/aligned_files/A3606a/A3606a.pdb

>  <distance_score>  (18) 
None

>  <energy_score>  (18) 
None

>  <compound>  (18) 
CSGCLFRVJTXKQJ-UHFFFAOYSA-N

>  <compound_id>  (18) 
122458

>  <target>  (18) 
A71EV2A

$$$$
A71EV2A-x3612_A_201_v1
     RDKit          3D

 19 20  0  0  0  0  0  0  0  0999 V2000
    8.7590   10.9720   23.7290 F   0  0  0  0  0  0  0  0  0  0  0  0
    7.8040   11.0400   24.6950 C   0  0  0  0  0  0  0  0  0  0  0  0
    7.1550    9.8900   25.0800 C   0  0  0  0  0  0  0  0  0  0  0  0
    6.2010    9.9780   26.0860 C   0  0  0  0  0  0  0  0  0  0  0  0
    5.9330   11.1910   26.6860 C   0  0  0  0  0  0  0  0  0  0  0  0
    6.5940   12.3400   26.2770 C   0  0  0  0  0  0  0  0  0  0  0  0
    7.5410   12.2810   25.2540 C   0  0  0  0  0  0  0  0  0  0  0  0
    8.2170   13.4130   24.7350 N   0  0  0  0  0  0  0  0  0  0  0  0
    8.1290   13.8270   23.4380 C   0  0  0  0  0  0  0  0  0  0  0  0
    7.3300   13.3420   22.6460 O   0  0  0  0  0  0  0  0  0  0  0  0
    8.9260   14.8760   23.0850 N   0  0  0  0  0  0  0  0  0  0  0  0
    9.9380   15.5170   23.9390 C   0  0  0  0  0  0  0  0  0  0  0  0
   11.3090   15.4870   23.2970 C   0  0  0  0  0  0  0  0  0  0  0  0
   11.2550   15.9950   21.8520 C   0  0  0  0  0  0  0  0  0  0  0  0
    8.8460   15.4310   21.7300 C   0  0  0  0  0  0  0  0  0  0  0  0
   10.1910   15.2580   21.0180 C   0  0  1  0  0  0  0  0  0  0  0  0
   10.1220   15.8040   19.6020 C   0  0  0  0  0  0  0  0  0  0  0  0
    9.6890   16.9420   19.3770 O   0  0  0  0  0  0  0  0  0  0  0  0
   10.6070   15.0140   18.6560 N   0  0  0  0  0  0  0  0  0  0  0  0
  2  1  1  0
  3  2  2  0
  4  3  1  0
  5  4  2  0
  6  5  1  0
  7  6  2  0
  7  2  1  0
  8  7  1  0
  9  8  1  0
 10  9  2  0
 11  9  1  0
 12 11  1  0
 13 12  1  0
 14 13  1  0
 15 11  1  0
 16 15  1  0
 16 14  1  0
 16 17  1  6
 18 17  2  0
 19 17  1  0
M  END
>  <id>  (19) 
207380

>  <inchikey>  (19) 
SIJSHILCUHKBHW-VIFPVBQESA-N

>  <alias>  (19) 
A3612a

>  <name>  (19) 
A3612a

>  <smiles>  (19) 
NC(=O)[C@H]1CCCN(C(=O)Nc2ccccc2F)C1

>  <path>  (19) 
/opt/xchem-fragalysis-2/maxwin/2A_HIPPO/A71EV2A_P3only_20241211/aligned_files/A3612a/A3612a.pdb

>  <distance_score>  (19) 
None

>  <energy_score>  (19) 
None

>  <compound>  (19) 
SIJSHILCUHKBHW-UHFFFAOYSA-N

>  <compound_id>  (19) 
122459

>  <target>  (19) 
A71EV2A

$$$$
A71EV2A-x3616_A_201_v1
     RDKit          3D

 20 21  0  0  0  0  0  0  0  0999 V2000
    9.7690   17.0030   19.3910 O   0  0  0  0  0  0  0  0  0  0  0  0
   10.1040   15.8470   19.6750 C   0  0  0  0  0  0  0  0  0  0  0  0
   10.4130   14.9370   18.7560 N   0  0  0  0  0  0  0  0  0  0  0  0
   10.1400   15.3700   21.1150 C   0  0  1  0  0  0  0  0  0  0  0  0
   11.4860   15.6750   21.7810 C   0  0  0  0  0  0  0  0  0  0  0  0
   11.4750   15.2310   23.2430 C   0  0  0  0  0  0  0  0  0  0  0  0
   10.2590   15.7890   23.9930 C   0  0  0  0  0  0  0  0  0  0  0  0
    9.0050   16.0360   21.8920 C   0  0  0  0  0  0  0  0  0  0  0  0
    8.9930   15.5390   23.2720 N   0  0  0  0  0  0  0  0  0  0  0  0
    8.0010   14.6620   23.6380 C   0  0  0  0  0  0  0  0  0  0  0  0
    7.1570   14.2620   22.8370 O   0  0  0  0  0  0  0  0  0  0  0  0
    7.9920   14.2870   24.9250 N   0  0  0  0  0  0  0  0  0  0  0  0
    7.1060   13.2230   25.3830 C   0  0  0  0  0  0  0  0  0  0  0  0
    7.5160   11.8280   24.9490 C   0  0  0  0  0  0  0  0  0  0  0  0
    6.7570   10.7320   25.3820 C   0  0  0  0  0  0  0  0  0  0  0  0
    5.6130   10.8820   26.3500 C   0  0  0  0  0  0  0  0  0  0  0  0
    8.6190   11.6060   24.1250 C   0  0  0  0  0  0  0  0  0  0  0  0
    8.9550   10.3260   23.7150 C   0  0  0  0  0  0  0  0  0  0  0  0
    8.1760    9.2630   24.0830 C   0  0  0  0  0  0  0  0  0  0  0  0
    7.0960    9.4610   24.9140 C   0  0  0  0  0  0  0  0  0  0  0  0
  2  1  2  0
  3  2  1  0
  4  2  1  6
  5  4  1  0
  6  5  1  0
  7  6  1  0
  8  4  1  0
  9  8  1  0
  9  7  1  0
 10  9  1  0
 11 10  2  0
 12 10  1  0
 13 12  1  0
 14 13  1  0
 15 14  2  0
 16 15  1  0
 17 14  1  0
 18 17  2  0
 19 18  1  0
 20 19  2  0
 20 15  1  0
M  END
>  <id>  (20) 
207381

>  <inchikey>  (20) 
XDPSLKIUHCZBTI-ZDUSSCGKSA-N

>  <alias>  (20) 
A3616a

>  <name>  (20) 
A3616a

>  <smiles>  (20) 
Cc1ccccc1CNC(=O)N1CCC[C@H](C(N)=O)C1

>  <path>  (20) 
/opt/xchem-fragalysis-2/maxwin/2A_HIPPO/A71EV2A_P3only_20241211/aligned_files/A3616a/A3616a_hippo.pdb

>  <distance_score>  (20) 
None

>  <energy_score>  (20) 
None

>  <compound>  (20) 
XDPSLKIUHCZBTI-UHFFFAOYSA-N

>  <compound_id>  (20) 
122460

>  <target>  (20) 
A71EV2A

$$$$
A71EV2A-x3618_A_201_v1
     RDKit          3D

 23 24  0  0  0  0  0  0  0  0999 V2000
    9.9250   16.7890   19.4620 O   0  0  0  0  0  0  0  0  0  0  0  0
   10.3230   15.6380   19.7020 C   0  0  0  0  0  0  0  0  0  0  0  0
   10.7730   14.8380   18.7390 N   0  0  0  0  0  0  0  0  0  0  0  0
   10.2660   15.0500   21.1060 C   0  0  1  0  0  0  0  0  0  0  0  0
   11.2240   15.7330   22.1160 C   0  0  0  0  0  0  0  0  0  0  0  0
   11.1790   15.0000   23.4600 C   0  0  0  0  0  0  0  0  0  0  0  0
    9.7620   14.9920   24.0360 C   0  0  0  0  0  0  0  0  0  0  0  0
    8.8590   15.1330   21.7100 C   0  0  0  0  0  0  0  0  0  0  0  0
    8.7870   14.5060   23.0400 N   0  0  0  0  0  0  0  0  0  0  0  0
    7.8310   13.5680   23.3100 C   0  0  0  0  0  0  0  0  0  0  0  0
    7.1520   13.0920   22.4240 O   0  0  0  0  0  0  0  0  0  0  0  0
    7.5740   13.3030   24.6360 N   0  0  0  0  0  0  0  0  0  0  0  0
    6.7370   12.2500   25.1160 C   0  0  0  0  0  0  0  0  0  0  0  0
    7.1930   10.9670   24.8090 C   0  0  0  0  0  0  0  0  0  0  0  0
    6.4900    9.8560   25.2660 C   0  0  0  0  0  0  0  0  0  0  0  0
    5.3370   10.0140   26.0180 C   0  0  0  0  0  0  0  0  0  0  0  0
    5.5650   12.4010   25.8580 C   0  0  0  0  0  0  0  0  0  0  0  0
    4.8560   11.2850   26.3130 C   0  0  0  0  0  0  0  0  0  0  0  0
    3.5930   11.3940   27.1150 C   0  0  0  0  0  0  0  0  0  0  0  0
    3.2410   10.4940   27.8870 O   0  0  0  0  0  0  0  0  0  0  0  0
    2.8660   12.5040   26.9610 N   0  0  0  0  0  0  0  0  0  0  0  0
    1.6470   12.7430   27.7370 C   0  0  0  0  0  0  0  0  0  0  0  0
    0.5260   13.2070   26.8810 C   0  0  0  0  0  0  0  0  0  0  0  0
  2  1  2  0
  3  2  1  0
  4  2  1  6
  5  4  1  0
  6  5  1  0
  7  6  1  0
  8  4  1  0
  9  8  1  0
  9  7  1  0
 10  9  1  0
 11 10  2  0
 12 10  1  0
 13 12  1  0
 14 13  2  0
 15 14  1  0
 16 15  2  0
 17 13  1  0
 18 16  1  0
 18 17  2  0
 19 18  1  0
 20 19  2  0
 21 19  1  0
 22 21  1  0
 23 22  1  0
M  END
>  <id>  (21) 
207382

>  <inchikey>  (21) 
AHABGCZYHXNKLQ-LBPRGKRZSA-N

>  <alias>  (21) 
A3618a

>  <name>  (21) 
A3618a

>  <smiles>  (21) 
CCNC(=O)c1cccc(NC(=O)N2CCC[C@H](C(N)=O)C2)c1

>  <path>  (21) 
/opt/xchem-fragalysis-2/maxwin/2A_HIPPO/A71EV2A_P3only_20241211/aligned_files/A3618a/A3618a_hippo.pdb

>  <distance_score>  (21) 
None

>  <energy_score>  (21) 
None

>  <compound>  (21) 
AHABGCZYHXNKLQ-UHFFFAOYSA-N

>  <compound_id>  (21) 
122461

>  <target>  (21) 
A71EV2A

$$$$
A71EV2A-x3634_A_201_v1
     RDKit          3D

 20 21  0  0  0  0  0  0  0  0999 V2000
    9.6240   16.9080   18.9920 O   0  0  0  0  0  0  0  0  0  0  0  0
    9.9970   15.8420   19.4900 C   0  0  0  0  0  0  0  0  0  0  0  0
   10.6110   14.8820   18.7950 N   0  0  0  0  0  0  0  0  0  0  0  0
    9.7620   15.5790   20.9520 C   0  0  1  0  0  0  0  0  0  0  0  0
    8.5630   14.6710   21.1960 C   0  0  0  0  0  0  0  0  0  0  0  0
   10.8930   15.0080   21.8370 C   0  0  1  0  0  0  0  0  0  0  0  0
   11.9600   16.0420   22.1940 C   0  0  0  0  0  0  0  0  0  0  0  0
   10.1430   14.4770   23.0530 C   0  0  0  0  0  0  0  0  0  0  0  0
    8.8190   14.1310   22.5280 N   0  0  0  0  0  0  0  0  0  0  0  0
    7.8640   13.4550   23.1830 C   0  0  0  0  0  0  0  0  0  0  0  0
    6.7850   13.2070   22.6800 O   0  0  0  0  0  0  0  0  0  0  0  0
    8.1980   13.0690   24.6110 C   0  0  0  0  0  0  0  0  0  0  0  0
    7.3140   11.9580   25.1240 C   0  0  0  0  0  0  0  0  0  0  0  0
    7.5720   10.6450   24.7480 C   0  0  0  0  0  0  0  0  0  0  0  0
    8.4940   10.5170   23.7420 O   0  0  0  0  0  0  0  0  0  0  0  0
    9.4590    9.4690   23.8260 C   0  0  0  0  0  0  0  0  0  0  0  0
    6.2960   12.2010   26.0440 C   0  0  0  0  0  0  0  0  0  0  0  0
    5.5900   11.1540   26.6130 C   0  0  0  0  0  0  0  0  0  0  0  0
    5.8760    9.8600   26.2560 C   0  0  0  0  0  0  0  0  0  0  0  0
    6.8610    9.5930   25.3110 C   0  0  0  0  0  0  0  0  0  0  0  0
  2  1  2  0
  3  2  1  0
  4  2  1  6
  5  4  1  0
  6  4  1  0
  6  7  1  1
  8  6  1  0
  9  5  1  0
  9  8  1  0
 10  9  1  0
 11 10  2  0
 12 10  1  0
 13 12  1  0
 14 13  2  0
 15 14  1  0
 16 15  1  0
 17 13  1  0
 18 17  2  0
 19 18  1  0
 20 19  2  0
 20 14  1  0
M  END
>  <id>  (22) 
207383

>  <inchikey>  (22) 
YUYPXSAJEYKAGG-JQWIXIFHSA-N

>  <alias>  (22) 
A3634a

>  <name>  (22) 
A3634a

>  <smiles>  (22) 
COc1ccccc1CC(=O)N1C[C@H](C(N)=O)[C@@H](C)C1

>  <path>  (22) 
/opt/xchem-fragalysis-2/maxwin/2A_HIPPO/A71EV2A_P3only_20241211/aligned_files/A3634a/A3634a.pdb

>  <distance_score>  (22) 
None

>  <energy_score>  (22) 
None

>  <compound>  (22) 
YUYPXSAJEYKAGG-UHFFFAOYSA-N

>  <compound_id>  (22) 
122462

>  <target>  (22) 
A71EV2A

$$$$
A71EV2A-x3663_A_201_v1
     RDKit          3D

 20 21  0  0  0  0  0  0  0  0999 V2000
    9.4910   16.4960   19.1280 O   0  0  0  0  0  0  0  0  0  0  0  0
   10.2500   15.6480   19.6050 C   0  0  0  0  0  0  0  0  0  0  0  0
   10.9770   14.8130   18.8820 N   0  0  0  0  0  0  0  0  0  0  0  0
   10.3830   15.5670   21.1110 C   0  0  2  0  0  0  0  0  0  0  0  0
   11.7300   15.2850   21.5190 O   0  0  0  0  0  0  0  0  0  0  0  0
   11.8110   15.2380   22.9520 C   0  0  0  0  0  0  0  0  0  0  0  0
   11.0210   14.0520   23.4800 C   0  0  0  0  0  0  0  0  0  0  0  0
    9.4850   14.4160   21.4970 C   0  0  0  0  0  0  0  0  0  0  0  0
    9.6600   14.0340   22.9020 N   0  0  0  0  0  0  0  0  0  0  0  0
    8.5570   13.5750   23.5340 C   0  0  0  0  0  0  0  0  0  0  0  0
    7.4740   13.4450   22.9660 O   0  0  0  0  0  0  0  0  0  0  0  0
    8.7340   13.1380   24.9730 C   0  0  0  0  0  0  0  0  0  0  0  0
    7.6850   12.1120   25.3250 C   0  0  0  0  0  0  0  0  0  0  0  0
    7.8060   10.8080   24.8610 C   0  0  0  0  0  0  0  0  0  0  0  0
    8.6330   10.6580   23.7780 O   0  0  0  0  0  0  0  0  0  0  0  0
    9.4920    9.5200   23.7450 C   0  0  0  0  0  0  0  0  0  0  0  0
    6.6390   12.4090   26.1930 C   0  0  0  0  0  0  0  0  0  0  0  0
    5.8000   11.4130   26.6570 C   0  0  0  0  0  0  0  0  0  0  0  0
    6.0030   10.1140   26.2750 C   0  0  0  0  0  0  0  0  0  0  0  0
    7.0010    9.8000   25.3650 C   0  0  0  0  0  0  0  0  0  0  0  0
  2  1  2  0
  3  2  1  0
  4  2  1  6
  5  4  1  0
  6  5  1  0
  7  6  1  0
  8  4  1  0
  9  8  1  0
  9  7  1  0
 10  9  1  0
 11 10  2  0
 12 10  1  0
 13 12  1  0
 14 13  2  0
 15 14  1  0
 16 15  1  0
 17 13  1  0
 18 17  2  0
 19 18  1  0
 20 19  2  0
 20 14  1  0
M  END
>  <id>  (23) 
207384

>  <inchikey>  (23) 
KJLPLKHZEUNURY-GFCCVEGCSA-N

>  <alias>  (23) 
A3663a

>  <name>  (23) 
A3663a

>  <smiles>  (23) 
COc1ccccc1CC(=O)N1CCO[C@@H](C(N)=O)C1

>  <path>  (23) 
/opt/xchem-fragalysis-2/maxwin/2A_HIPPO/A71EV2A_P3only_20241211/aligned_files/A3663a/A3663a.pdb

>  <distance_score>  (23) 
None

>  <energy_score>  (23) 
None

>  <compound>  (23) 
KJLPLKHZEUNURY-UHFFFAOYSA-N

>  <compound_id>  (23) 
122463

>  <target>  (23) 
A71EV2A

$$$$
A71EV2A-x3665_A_201_v1
     RDKit          3D

 22 23  0  0  0  0  0  0  0  0999 V2000
   11.6750   14.3470   23.8120 F   0  0  0  0  0  0  0  0  0  0  0  0
   11.1150   15.5950   23.6740 C   0  0  0  0  0  0  0  0  0  0  0  0
   11.8940   16.4040   24.4720 F   0  0  0  0  0  0  0  0  0  0  0  0
   11.2190   16.0460   22.2340 C   0  0  0  0  0  0  0  0  0  0  0  0
   10.2790   15.2500   21.3040 C   0  0  2  0  0  0  0  0  0  0  0  0
   10.2980   15.7800   19.8770 C   0  0  0  0  0  0  0  0  0  0  0  0
    9.9080   16.9240   19.6150 O   0  0  0  0  0  0  0  0  0  0  0  0
   10.7140   14.9350   18.9500 N   0  0  0  0  0  0  0  0  0  0  0  0
    8.8500   15.2740   21.8580 C   0  0  0  0  0  0  0  0  0  0  0  0
    9.6300   15.5500   24.1760 C   0  0  0  0  0  0  0  0  0  0  0  0
    8.8220   14.7660   23.2360 N   0  0  0  0  0  0  0  0  0  0  0  0
    8.0820   13.6840   23.5650 C   0  0  0  0  0  0  0  0  0  0  0  0
    7.2640   13.2010   22.7960 O   0  0  0  0  0  0  0  0  0  0  0  0
    8.3110   13.1290   24.9600 C   0  0  0  0  0  0  0  0  0  0  0  0
    7.4630   11.9210   25.2870 C   0  0  0  0  0  0  0  0  0  0  0  0
    7.7980   10.6610   24.7870 C   0  0  0  0  0  0  0  0  0  0  0  0
    8.8930   10.6410   23.9620 O   0  0  0  0  0  0  0  0  0  0  0  0
    9.3840    9.3760   23.5210 C   0  0  0  0  0  0  0  0  0  0  0  0
    6.4040   12.0120   26.1890 C   0  0  0  0  0  0  0  0  0  0  0  0
    5.6870   10.8910   26.5630 C   0  0  0  0  0  0  0  0  0  0  0  0
    6.0220    9.6630   26.0600 C   0  0  0  0  0  0  0  0  0  0  0  0
    7.0810    9.5340   25.1720 C   0  0  0  0  0  0  0  0  0  0  0  0
  2  1  1  0
  3  2  1  0
  4  2  1  0
  5  4  1  0
  5  6  1  6
  7  6  2  0
  8  6  1  0
  9  5  1  0
 10  2  1  0
 11 10  1  0
 11  9  1  0
 12 11  1  0
 13 12  2  0
 14 12  1  0
 15 14  1  0
 16 15  2  0
 17 16  1  0
 18 17  1  0
 19 15  1  0
 20 19  2  0
 21 20  1  0
 22 21  2  0
 22 16  1  0
M  END
>  <id>  (24) 
207385

>  <inchikey>  (24) 
DUWCUXLXYUMFLN-NSHDSACASA-N

>  <alias>  (24) 
A3665a

>  <name>  (24) 
A3665a

>  <smiles>  (24) 
COc1ccccc1CC(=O)N1C[C@@H](C(N)=O)CC(F)(F)C1

>  <path>  (24) 
/opt/xchem-fragalysis-2/maxwin/2A_HIPPO/A71EV2A_P3only_20241211/aligned_files/A3665a/A3665a.pdb

>  <distance_score>  (24) 
None

>  <energy_score>  (24) 
None

>  <compound>  (24) 
DUWCUXLXYUMFLN-UHFFFAOYSA-N

>  <compound_id>  (24) 
122464

>  <target>  (24) 
A71EV2A

$$$$
A71EV2A-x3685_A_201_v1
     RDKit          3D

 20 21  0  0  0  0  0  0  0  0999 V2000
    9.8310   16.4460   19.5350 O   0  0  0  0  0  0  0  0  0  0  0  0
   10.5510   15.4340   19.5120 C   0  0  0  0  0  0  0  0  0  0  0  0
   10.9150   14.8490   18.3660 N   0  0  0  0  0  0  0  0  0  0  0  0
   11.0960   14.9080   20.6460 N   0  0  0  0  0  0  0  0  0  0  0  0
   10.6970   15.2640   22.0170 C   0  0  2  0  0  0  0  0  0  0  0  0
   11.7140   14.7970   23.0370 C   0  0  0  0  0  0  0  0  0  0  0  0
   10.9650   14.8130   24.3600 C   0  0  0  0  0  0  0  0  0  0  0  0
    9.4380   14.4910   22.5060 C   0  0  0  0  0  0  0  0  0  0  0  0
    9.6080   14.4400   23.9630 N   0  0  0  0  0  0  0  0  0  0  0  0
    8.6760   14.1380   24.8930 C   0  0  0  0  0  0  0  0  0  0  0  0
    8.9010   14.2370   26.0960 O   0  0  0  0  0  0  0  0  0  0  0  0
    7.3500   13.6040   24.3820 C   0  0  0  0  0  0  0  0  0  0  0  0
    6.8820   12.3660   25.1260 C   0  0  0  0  0  0  0  0  0  0  0  0
    7.3880   11.1060   24.8000 C   0  0  0  0  0  0  0  0  0  0  0  0
    8.3790   11.1130   23.8650 O   0  0  0  0  0  0  0  0  0  0  0  0
    8.9870    9.8680   23.5290 C   0  0  0  0  0  0  0  0  0  0  0  0
    5.8800   12.4350   26.0910 C   0  0  0  0  0  0  0  0  0  0  0  0
    5.3810   11.2870   26.6880 C   0  0  0  0  0  0  0  0  0  0  0  0
    5.8660   10.0470   26.3250 C   0  0  0  0  0  0  0  0  0  0  0  0
    6.8660    9.9410   25.3650 C   0  0  0  0  0  0  0  0  0  0  0  0
  2  1  2  0
  3  2  1  0
  4  2  1  0
  5  4  1  6
  6  5  1  0
  7  6  1  0
  8  5  1  0
  9  8  1  0
  9  7  1  0
 10  9  1  0
 11 10  2  0
 12 10  1  0
 13 12  1  0
 14 13  2  0
 15 14  1  0
 16 15  1  0
 17 13  1  0
 18 17  2  0
 19 18  1  0
 20 19  2  0
 20 14  1  0
M  END
>  <id>  (25) 
207386

>  <inchikey>  (25) 
GQYBHVCKCWFZQQ-LLVKDONJSA-N

>  <alias>  (25) 
A3685a

>  <name>  (25) 
A3685a

>  <smiles>  (25) 
COc1ccccc1CC(=O)N1CC[C@@H](NC(N)=O)C1

>  <path>  (25) 
/opt/xchem-fragalysis-2/maxwin/2A_HIPPO/A71EV2A_P3only_20241211/aligned_files/A3685a/A3685a.pdb

>  <distance_score>  (25) 
None

>  <energy_score>  (25) 
None

>  <compound>  (25) 
GQYBHVCKCWFZQQ-UHFFFAOYSA-N

>  <compound_id>  (25) 
122465

>  <target>  (25) 
A71EV2A

$$$$
A71EV2A-x3694_A_201_v1
     RDKit          3D

 20 21  0  0  0  0  0  0  0  0999 V2000
    9.9640   16.8760   19.3550 O   0  0  0  0  0  0  0  0  0  0  0  0
   10.5840   15.8250   19.5330 C   0  0  0  0  0  0  0  0  0  0  0  0
   10.6530   14.8740   18.6190 N   0  0  0  0  0  0  0  0  0  0  0  0
   11.3390   15.5790   20.8180 C   0  0  0  0  0  0  0  0  0  0  0  0
   10.5110   15.8530   22.0330 C   0  0  2  0  0  0  0  0  0  0  0  0
   11.3180   15.5350   23.3080 C   0  0  0  0  0  0  0  0  0  0  0  0
   10.6590   14.3490   23.9860 C   0  0  0  0  0  0  0  0  0  0  0  0
    9.2410   15.0050   22.0970 C   0  0  0  0  0  0  0  0  0  0  0  0
    9.3260   14.2700   23.3610 N   0  0  0  0  0  0  0  0  0  0  0  0
    8.3000   13.5110   23.7780 C   0  0  0  0  0  0  0  0  0  0  0  0
    7.2830   13.3620   23.1120 O   0  0  0  0  0  0  0  0  0  0  0  0
    8.4770   12.8860   25.1490 C   0  0  0  0  0  0  0  0  0  0  0  0
    7.4630   11.7970   25.4160 C   0  0  0  0  0  0  0  0  0  0  0  0
    7.6400   10.5340   24.8580 C   0  0  0  0  0  0  0  0  0  0  0  0
    8.6820   10.4320   23.9750 O   0  0  0  0  0  0  0  0  0  0  0  0
    9.1150    9.1400   23.5780 C   0  0  0  0  0  0  0  0  0  0  0  0
    6.4060   11.9890   26.2990 C   0  0  0  0  0  0  0  0  0  0  0  0
    5.5580   10.9480   26.6280 C   0  0  0  0  0  0  0  0  0  0  0  0
    5.7550    9.7050   26.0840 C   0  0  0  0  0  0  0  0  0  0  0  0
    6.7970    9.4890   25.1930 C   0  0  0  0  0  0  0  0  0  0  0  0
  2  1  2  0
  3  2  1  0
  4  2  1  0
  5  4  1  6
  6  5  1  0
  7  6  1  0
  8  5  1  0
  9  8  1  0
  9  7  1  0
 10  9  1  0
 11 10  2  0
 12 10  1  0
 13 12  1  0
 14 13  2  0
 15 14  1  0
 16 15  1  0
 17 13  1  0
 18 17  2  0
 19 18  1  0
 20 19  2  0
 20 14  1  0
M  END
>  <id>  (26) 
207387

>  <inchikey>  (26) 
MSPWRYALONZABD-NSHDSACASA-N

>  <alias>  (26) 
A3694a

>  <name>  (26) 
A3694a

>  <smiles>  (26) 
COc1ccccc1CC(=O)N1CC[C@@H](CC(N)=O)C1

>  <path>  (26) 
/opt/xchem-fragalysis-2/maxwin/2A_HIPPO/A71EV2A_P3only_20241211/aligned_files/A3694a/A3694a_hippo.pdb

>  <distance_score>  (26) 
None

>  <energy_score>  (26) 
None

>  <compound>  (26) 
MSPWRYALONZABD-UHFFFAOYSA-N

>  <compound_id>  (26) 
122466

>  <target>  (26) 
A71EV2A

$$$$
A71EV2A-x3849_A_201_v1
     RDKit          3D

 20 21  0  0  0  0  0  0  0  0999 V2000
    9.6180   17.0130   19.4330 O   0  0  0  0  0  0  0  0  0  0  0  0
   10.1120   15.9900   19.9100 C   0  0  0  0  0  0  0  0  0  0  0  0
   10.6090   15.0150   19.1530 N   0  0  0  0  0  0  0  0  0  0  0  0
   10.1510   15.7730   21.4140 C   0  0  2  0  0  0  0  0  0  0  0  0
   11.5850   15.8200   21.9530 C   0  0  0  0  0  0  0  0  0  0  0  0
   11.5940   15.5260   23.4500 C   0  0  0  0  0  0  0  0  0  0  0  0
   10.9690   14.1650   23.7260 C   0  0  0  0  0  0  0  0  0  0  0  0
    9.4550   14.4480   21.7410 C   0  0  0  0  0  0  0  0  0  0  0  0
    9.6220   14.0240   23.1360 N   0  0  0  0  0  0  0  0  0  0  0  0
    8.6340   13.2810   23.6950 C   0  0  0  0  0  0  0  0  0  0  0  0
    7.6080   12.9770   23.0820 O   0  0  0  0  0  0  0  0  0  0  0  0
    8.9010   12.7350   25.0870 C   0  0  0  0  0  0  0  0  0  0  0  0
    7.9720   11.5940   25.4370 C   0  0  0  0  0  0  0  0  0  0  0  0
    8.0800   10.3060   24.8840 C   0  0  0  0  0  0  0  0  0  0  0  0
    9.0760   10.1640   23.9870 O   0  0  0  0  0  0  0  0  0  0  0  0
    9.4060    8.8420   23.5440 C   0  0  0  0  0  0  0  0  0  0  0  0
    6.9530   11.7730   26.3670 C   0  0  0  0  0  0  0  0  0  0  0  0
    6.1250   10.7210   26.7080 C   0  0  0  0  0  0  0  0  0  0  0  0
    6.3220    9.5090   26.0940 C   0  0  0  0  0  0  0  0  0  0  0  0
    7.2840    9.2870   25.1870 N   0  0  0  0  0  0  0  0  0  0  0  0
  2  1  2  0
  3  2  1  0
  4  2  1  6
  5  4  1  0
  6  5  1  0
  7  6  1  0
  8  4  1  0
  9  8  1  0
  9  7  1  0
 10  9  1  0
 11 10  2  0
 12 10  1  0
 13 12  1  0
 14 13  2  0
 15 14  1  0
 16 15  1  0
 17 13  1  0
 18 17  2  0
 19 18  1  0
 20 19  2  0
 20 14  1  0
M  END
>  <id>  (27) 
207388

>  <inchikey>  (27) 
DPQNQDXNIINHJH-LLVKDONJSA-N

>  <alias>  (27) 
A3849a

>  <name>  (27) 
A3849a

>  <smiles>  (27) 
COc1ncccc1CC(=O)N1CCC[C@@H](C(N)=O)C1

>  <path>  (27) 
/opt/xchem-fragalysis-2/maxwin/2A_HIPPO/A71EV2A_P3only_20241211/aligned_files/A3849a/A3849a.pdb

>  <distance_score>  (27) 
None

>  <energy_score>  (27) 
None

>  <compound>  (27) 
DPQNQDXNIINHJH-UHFFFAOYSA-N

>  <compound_id>  (27) 
122467

>  <target>  (27) 
A71EV2A

$$$$
A71EV2A-x3858_A_201_v1
     RDKit          3D

 21 22  0  0  0  0  0  0  0  0999 V2000
    9.6960   17.0680   19.4350 O   0  0  0  0  0  0  0  0  0  0  0  0
   10.1230   16.0120   19.8790 C   0  0  0  0  0  0  0  0  0  0  0  0
   10.5370   15.0170   19.0760 N   0  0  0  0  0  0  0  0  0  0  0  0
   10.1750   15.7820   21.3800 C   0  0  2  0  0  0  0  0  0  0  0  0
   11.5990   15.7980   21.9280 C   0  0  0  0  0  0  0  0  0  0  0  0
   11.5750   15.5510   23.4330 C   0  0  0  0  0  0  0  0  0  0  0  0
   10.8030   14.2820   23.7720 C   0  0  0  0  0  0  0  0  0  0  0  0
    9.3780   14.5410   21.7240 C   0  0  0  0  0  0  0  0  0  0  0  0
    9.4610   14.2090   23.1500 N   0  0  0  0  0  0  0  0  0  0  0  0
    8.4000   13.5220   23.6370 C   0  0  0  0  0  0  0  0  0  0  0  0
    7.3960   13.2710   22.9610 O   0  0  0  0  0  0  0  0  0  0  0  0
    8.5820   12.9480   25.0220 C   0  0  0  0  0  0  0  0  0  0  0  0
    7.5130   11.9120   25.2790 C   0  0  0  0  0  0  0  0  0  0  0  0
    7.6930   10.6020   24.8080 C   0  0  0  0  0  0  0  0  0  0  0  0
    8.7570   10.4320   23.9490 O   0  0  0  0  0  0  0  0  0  0  0  0
    9.0720    9.0950   23.5060 C   0  0  0  0  0  0  0  0  0  0  0  0
    6.4040   12.1640   26.0940 C   0  0  0  0  0  0  0  0  0  0  0  0
    5.9930   13.7830   26.5770 Cl  0  0  0  0  0  0  0  0  0  0  0  0
    5.5650   11.1590   26.5120 C   0  0  0  0  0  0  0  0  0  0  0  0
    5.7950    9.8700   26.0800 C   0  0  0  0  0  0  0  0  0  0  0  0
    6.8550    9.5830   25.2200 C   0  0  0  0  0  0  0  0  0  0  0  0
  2  1  2  0
  3  2  1  0
  4  2  1  6
  5  4  1  0
  6  5  1  0
  7  6  1  0
  8  4  1  0
  9  8  1  0
  9  7  1  0
 10  9  1  0
 11 10  2  0
 12 10  1  0
 13 12  1  0
 14 13  2  0
 15 14  1  0
 16 15  1  0
 17 13  1  0
 18 17  1  0
 19 17  2  0
 20 19  1  0
 21 20  2  0
 21 14  1  0
M  END
>  <id>  (28) 
207389

>  <inchikey>  (28) 
NHPQEFHMDYOTOA-SNVBAGLBSA-N

>  <alias>  (28) 
A3858a

>  <name>  (28) 
A3858a

>  <smiles>  (28) 
COc1cccc(Cl)c1CC(=O)N1CCC[C@@H](C(N)=O)C1

>  <path>  (28) 
/opt/xchem-fragalysis-2/maxwin/2A_HIPPO/A71EV2A_P3only_20241211/aligned_files/A3858a/A3858a_hippo.pdb

>  <distance_score>  (28) 
None

>  <energy_score>  (28) 
None

>  <compound>  (28) 
NHPQEFHMDYOTOA-UHFFFAOYSA-N

>  <compound_id>  (28) 
122468

>  <target>  (28) 
A71EV2A

$$$$
A71EV2A-x3867_A_201_v1
     RDKit          3D

 20 21  0  0  0  0  0  0  0  0999 V2000
   10.5000   16.8660   19.4460 O   0  0  0  0  0  0  0  0  0  0  0  0
   10.8700   15.7150   19.8000 C   0  0  0  0  0  0  0  0  0  0  0  0
   10.7830   14.6660   18.9840 N   0  0  0  0  0  0  0  0  0  0  0  0
   11.3960   15.4980   21.1900 C   0  0  0  0  0  0  0  0  0  0  0  0
   12.3600   16.3730   21.7340 C   0  0  0  0  0  0  0  0  0  0  0  0
   12.9960   17.4800   20.9320 C   0  0  0  0  0  0  0  0  0  0  0  0
   12.7380   16.1840   23.0640 C   0  0  0  0  0  0  0  0  0  0  0  0
   12.2100   15.1680   23.8370 C   0  0  0  0  0  0  0  0  0  0  0  0
   10.8780   14.4570   21.9770 C   0  0  0  0  0  0  0  0  0  0  0  0
   11.2750   14.2890   23.3030 C   0  0  0  0  0  0  0  0  0  0  0  0
   10.7140   13.2170   24.1850 C   0  0  0  0  0  0  0  0  0  0  0  0
   11.3640   12.7730   25.1250 O   0  0  0  0  0  0  0  0  0  0  0  0
    9.4470   12.8130   23.9190 N   0  0  0  0  0  0  0  0  0  0  0  0
    8.6600   11.9450   24.7260 C   0  0  0  0  0  0  0  0  0  0  0  0
    8.7560   10.5500   24.5690 C   0  0  0  0  0  0  0  0  0  0  0  0
    9.7460    9.9070   23.6330 C   0  0  0  0  0  0  0  0  0  0  0  0
    7.7400   12.4990   25.6180 C   0  0  0  0  0  0  0  0  0  0  0  0
    6.9110   11.6700   26.3560 C   0  0  0  0  0  0  0  0  0  0  0  0
    6.9920   10.3060   26.2110 C   0  0  0  0  0  0  0  0  0  0  0  0
    7.8970    9.7530   25.3240 C   0  0  0  0  0  0  0  0  0  0  0  0
  2  1  2  0
  3  2  1  0
  4  2  1  0
  5  4  2  0
  6  5  1  0
  7  5  1  0
  8  7  2  0
  9  4  1  0
 10  9  2  0
 10  8  1  0
 11 10  1  0
 12 11  2  0
 13 11  1  0
 14 13  1  0
 15 14  2  0
 16 15  1  0
 17 14  1  0
 18 17  2  0
 19 18  1  0
 20 19  2  0
 20 15  1  0
M  END
>  <id>  (29) 
207390

>  <inchikey>  (29) 
MQPWOZBWSFDFOW-UHFFFAOYSA-N

>  <alias>  (29) 
A3867a

>  <name>  (29) 
A3867a

>  <smiles>  (29) 
Cc1ccccc1NC(=O)c1ccc(C)c(C(N)=O)c1

>  <path>  (29) 
/opt/xchem-fragalysis-2/maxwin/2A_HIPPO/A71EV2A_P3only_20241211/aligned_files/A3867a/A3867a.pdb

>  <distance_score>  (29) 
None

>  <energy_score>  (29) 
None

>  <compound>  (29) 
MQPWOZBWSFDFOW-UHFFFAOYSA-N

>  <compound_id>  (29) 
122469

>  <target>  (29) 
A71EV2A

$$$$
A71EV2A-x3868_A_201_v1
     RDKit          3D

 21 22  0  0  0  0  0  0  0  0999 V2000
    9.9460   16.9880   19.4260 O   0  0  0  0  0  0  0  0  0  0  0  0
   10.3510   15.8480   19.6700 C   0  0  0  0  0  0  0  0  0  0  0  0
   10.6610   14.9740   18.7220 N   0  0  0  0  0  0  0  0  0  0  0  0
   10.5480   15.3780   21.1010 C   0  0  1  0  0  0  0  0  0  0  0  0
   11.3540   16.4100   21.9120 C   0  0  0  0  0  0  0  0  0  0  0  0
   11.5320   15.9640   23.3650 C   0  0  0  0  0  0  0  0  0  0  0  0
   10.1910   15.7220   24.0140 C   0  0  0  0  0  0  0  0  0  0  0  0
    9.2050   15.2000   21.8100 C   0  0  0  0  0  0  0  0  0  0  0  0
    9.3980   14.7880   23.2050 N   0  0  0  0  0  0  0  0  0  0  0  0
    9.0660   13.6070   23.8140 C   0  0  0  0  0  0  0  0  0  0  0  0
    9.8680   13.0380   24.5410 O   0  0  0  0  0  0  0  0  0  0  0  0
    7.7830   13.1210   23.6560 N   0  0  0  0  0  0  0  0  0  0  0  0
    6.9760   13.6030   22.5380 C   0  0  0  0  0  0  0  0  0  0  0  0
    7.1920   12.1220   24.5050 C   0  0  0  0  0  0  0  0  0  0  0  0
    7.6420   10.7970   24.4650 C   0  0  0  0  0  0  0  0  0  0  0  0
    8.7820   10.5730   23.7330 O   0  0  0  0  0  0  0  0  0  0  0  0
    9.2430    9.2260   23.5930 C   0  0  0  0  0  0  0  0  0  0  0  0
    6.1280   12.4770   25.3270 C   0  0  0  0  0  0  0  0  0  0  0  0
    5.5000   11.5060   26.0930 C   0  0  0  0  0  0  0  0  0  0  0  0
    5.9140   10.1920   26.0270 C   0  0  0  0  0  0  0  0  0  0  0  0
    6.9800    9.8300   25.2100 C   0  0  0  0  0  0  0  0  0  0  0  0
  2  1  2  0
  3  2  1  0
  4  2  1  6
  5  4  1  0
  6  5  1  0
  7  6  1  0
  8  4  1  0
  9  8  1  0
  9  7  1  0
 10  9  1  0
 11 10  2  0
 12 10  1  0
 13 12  1  0
 14 12  1  0
 15 14  2  0
 16 15  1  0
 17 16  1  0
 18 14  1  0
 19 18  2  0
 20 19  1  0
 21 20  2  0
 21 15  1  0
M  END
>  <id>  (30) 
207391

>  <inchikey>  (30) 
BAFLNQPOAQUAMV-NSHDSACASA-N

>  <alias>  (30) 
A3868a

>  <name>  (30) 
A3868a

>  <smiles>  (30) 
COc1ccccc1N(C)C(=O)N1CCC[C@H](C(N)=O)C1

>  <path>  (30) 
/opt/xchem-fragalysis-2/maxwin/2A_HIPPO/A71EV2A_P3only_20241211/aligned_files/A3868a/A3868a.pdb

>  <distance_score>  (30) 
None

>  <energy_score>  (30) 
None

>  <compound>  (30) 
BAFLNQPOAQUAMV-UHFFFAOYSA-N

>  <compound_id>  (30) 
122470

>  <target>  (30) 
A71EV2A

$$$$
A71EV2A-x3869_A_201_v1
     RDKit          3D

 20 21  0  0  0  0  0  0  0  0999 V2000
    9.6860   17.0190   19.4860 O   0  0  0  0  0  0  0  0  0  0  0  0
   10.1340   15.9610   19.9380 C   0  0  0  0  0  0  0  0  0  0  0  0
   10.6290   15.0010   19.1600 N   0  0  0  0  0  0  0  0  0  0  0  0
   10.1640   15.7030   21.4360 C   0  0  2  0  0  0  0  0  0  0  0  0
   11.6010   15.7560   21.9720 C   0  0  0  0  0  0  0  0  0  0  0  0
   11.6400   15.4420   23.4650 C   0  0  0  0  0  0  0  0  0  0  0  0
   11.0430   14.0690   23.7350 C   0  0  0  0  0  0  0  0  0  0  0  0
    9.5410   14.3360   21.7420 C   0  0  0  0  0  0  0  0  0  0  0  0
    9.7030   13.9150   23.1400 N   0  0  0  0  0  0  0  0  0  0  0  0
    8.6950   13.2300   23.7350 C   0  0  0  0  0  0  0  0  0  0  0  0
    7.6510   12.9650   23.1480 O   0  0  0  0  0  0  0  0  0  0  0  0
    8.9420   12.7100   25.1410 C   0  0  0  0  0  0  0  0  0  0  0  0
    8.0290   11.5510   25.4780 C   0  0  0  0  0  0  0  0  0  0  0  0
    8.1420   10.2630   24.9080 C   0  0  0  0  0  0  0  0  0  0  0  0
    9.1590   10.1220   24.0260 O   0  0  0  0  0  0  0  0  0  0  0  0
    9.4390    8.8160   23.5180 C   0  0  0  0  0  0  0  0  0  0  0  0
    6.9910   11.7230   26.3920 C   0  0  0  0  0  0  0  0  0  0  0  0
    6.1490   10.6730   26.7020 C   0  0  0  0  0  0  0  0  0  0  0  0
    6.3590    9.4650   26.0880 C   0  0  0  0  0  0  0  0  0  0  0  0
    7.3380    9.2460   25.1940 N   0  0  0  0  0  0  0  0  0  0  0  0
  2  1  2  0
  3  2  1  0
  4  2  1  6
  5  4  1  0
  6  5  1  0
  7  6  1  0
  8  4  1  0
  9  8  1  0
  9  7  1  0
 10  9  1  0
 11 10  2  0
 12 10  1  0
 13 12  1  0
 14 13  2  0
 15 14  1  0
 16 15  1  0
 17 13  1  0
 18 17  2  0
 19 18  1  0
 20 19  2  0
 20 14  1  0
M  END
>  <id>  (31) 
207392

>  <inchikey>  (31) 
DPQNQDXNIINHJH-LLVKDONJSA-N

>  <alias>  (31) 
A3869a

>  <name>  (31) 
A3869a

>  <smiles>  (31) 
COc1ncccc1CC(=O)N1CCC[C@@H](C(N)=O)C1

>  <path>  (31) 
/opt/xchem-fragalysis-2/maxwin/2A_HIPPO/A71EV2A_P3only_20241211/aligned_files/A3869a/A3869a.pdb

>  <distance_score>  (31) 
None

>  <energy_score>  (31) 
None

>  <compound>  (31) 
DPQNQDXNIINHJH-UHFFFAOYSA-N

>  <compound_id>  (31) 
122467

>  <target>  (31) 
A71EV2A

$$$$
A71EV2A-x3883_A_201_v1
     RDKit          3D

 22 23  0  0  0  0  0  0  0  0999 V2000
    9.7400   16.7630   19.3780 O   0  0  0  0  0  0  0  0  0  0  0  0
   10.2080   15.6410   19.6130 C   0  0  0  0  0  0  0  0  0  0  0  0
   10.6910   14.8450   18.6720 N   0  0  0  0  0  0  0  0  0  0  0  0
   10.2570   15.0930   21.0280 C   0  0  1  0  0  0  0  0  0  0  0  0
   11.2870   15.8410   21.9090 C   0  0  0  0  0  0  0  0  0  0  0  0
   11.3400   15.2060   23.2950 C   0  0  0  0  0  0  0  0  0  0  0  0
    9.9630   15.2080   23.9420 C   0  0  0  0  0  0  0  0  0  0  0  0
    8.8890   15.1460   21.7010 C   0  0  0  0  0  0  0  0  0  0  0  0
    8.9610   14.5820   23.0570 N   0  0  0  0  0  0  0  0  0  0  0  0
    8.0780   13.6440   23.4670 C   0  0  0  0  0  0  0  0  0  0  0  0
    7.2060   13.2330   22.7310 O   0  0  0  0  0  0  0  0  0  0  0  0
    8.1020   13.2400   24.9560 C   0  0  1  0  0  0  0  0  0  0  0  0
    7.7880   14.3300   25.8310 O   0  0  0  0  0  0  0  0  0  0  0  0
    6.6840   15.1070   25.3930 C   0  0  0  0  0  0  0  0  0  0  0  0
    7.2440   12.0290   25.2690 C   0  0  0  0  0  0  0  0  0  0  0  0
    7.6030   10.7530   24.8380 C   0  0  0  0  0  0  0  0  0  0  0  0
    8.7060   10.6980   24.0220 O   0  0  0  0  0  0  0  0  0  0  0  0
    9.1600    9.3990   23.5890 C   0  0  0  0  0  0  0  0  0  0  0  0
    6.1490   12.1530   26.1200 C   0  0  0  0  0  0  0  0  0  0  0  0
    5.4320   11.0470   26.5390 C   0  0  0  0  0  0  0  0  0  0  0  0
    5.7880    9.7990   26.1020 C   0  0  0  0  0  0  0  0  0  0  0  0
    6.8760    9.6410   25.2520 C   0  0  0  0  0  0  0  0  0  0  0  0
  2  1  2  0
  3  2  1  0
  4  2  1  6
  5  4  1  0
  6  5  1  0
  7  6  1  0
  8  4  1  0
  9  8  1  0
  9  7  1  0
 10  9  1  0
 11 10  2  0
 12 10  1  0
 12 13  1  1
 14 13  1  0
 15 12  1  0
 16 15  2  0
 17 16  1  0
 18 17  1  0
 19 15  1  0
 20 19  2  0
 21 20  1  0
 22 21  2  0
 22 16  1  0
M  END
>  <id>  (32) 
207393

>  <inchikey>  (32) 
SGKREISFYQPEPI-FZMZJTMJSA-N

>  <alias>  (32) 
A3883a

>  <name>  (32) 
A3883a

>  <smiles>  (32) 
COc1ccccc1[C@H](OC)C(=O)N1CCC[C@H](C(N)=O)C1

>  <path>  (32) 
/opt/xchem-fragalysis-2/maxwin/2A_HIPPO/A71EV2A_P3only_20241211/aligned_files/A3883a/A3883a.pdb

>  <distance_score>  (32) 
None

>  <energy_score>  (32) 
None

>  <compound>  (32) 
SGKREISFYQPEPI-UHFFFAOYSA-N

>  <compound_id>  (32) 
122471

>  <target>  (32) 
A71EV2A

$$$$
A71EV2A-x3884_A_201_v1
     RDKit          3D

 28 29  0  0  0  0  0  0  0  0999 V2000
    9.8060   16.8650   19.5740 O   0  0  0  0  0  0  0  0  0  0  0  0
   10.2680   15.7350   19.7640 C   0  0  0  0  0  0  0  0  0  0  0  0
   10.6290   14.9370   18.7740 N   0  0  0  0  0  0  0  0  0  0  0  0
   10.3740   15.1510   21.1620 C   0  0  1  0  0  0  0  0  0  0  0  0
   11.4430   15.8710   22.0060 C   0  0  0  0  0  0  0  0  0  0  0  0
   11.5390   15.2320   23.3940 C   0  0  0  0  0  0  0  0  0  0  0  0
   10.1800   15.2270   24.0660 C   0  0  0  0  0  0  0  0  0  0  0  0
    9.0190   15.1730   21.8700 C   0  0  0  0  0  0  0  0  0  0  0  0
    9.1380   14.6170   23.2210 N   0  0  0  0  0  0  0  0  0  0  0  0
    8.2550   13.6890   23.6440 C   0  0  0  0  0  0  0  0  0  0  0  0
    7.3550   13.3000   22.9210 O   0  0  0  0  0  0  0  0  0  0  0  0
    8.3390   13.2080   25.1420 C   0  0  1  0  0  0  0  0  0  0  0  0
    8.0710   14.2810   26.0960 N   0  0  0  0  0  0  0  0  0  0  0  0
    8.9720   14.6040   27.0430 C   0  0  0  0  0  0  0  0  0  0  0  0
    8.5070   15.6230   27.7630 O   0  0  0  0  0  0  0  0  0  0  0  0
    9.3400   16.2590   28.8150 C   0  0  0  0  0  0  0  0  0  0  0  0
    9.6990   15.3160   29.9520 C   0  0  0  0  0  0  0  0  0  0  0  0
   10.5760   16.8080   28.1300 C   0  0  0  0  0  0  0  0  0  0  0  0
    8.4520   17.3870   29.2870 C   0  0  0  0  0  0  0  0  0  0  0  0
   10.0210   14.0240   27.2390 O   0  0  0  0  0  0  0  0  0  0  0  0
    7.4420   12.0050   25.3730 C   0  0  0  0  0  0  0  0  0  0  0  0
    7.7720   10.7670   24.8220 C   0  0  0  0  0  0  0  0  0  0  0  0
    8.9060   10.7510   24.0480 O   0  0  0  0  0  0  0  0  0  0  0  0
    9.4380    9.4780   23.6590 C   0  0  0  0  0  0  0  0  0  0  0  0
    6.3200   12.0930   26.1910 C   0  0  0  0  0  0  0  0  0  0  0  0
    5.5430   10.9790   26.4380 C   0  0  0  0  0  0  0  0  0  0  0  0
    5.8730    9.7760   25.8850 C   0  0  0  0  0  0  0  0  0  0  0  0
    6.9920    9.6540   25.0700 C   0  0  0  0  0  0  0  0  0  0  0  0
  2  1  2  0
  3  2  1  0
  4  2  1  6
  5  4  1  0
  6  5  1  0
  7  6  1  0
  8  4  1  0
  9  8  1  0
  9  7  1  0
 10  9  1  0
 11 10  2  0
 12 10  1  0
 12 13  1  1
 14 13  1  0
 15 14  1  0
 16 15  1  0
 16 17  1  0
 18 16  1  0
 19 16  1  0
 20 14  2  0
 21 12  1  0
 22 21  2  0
 23 22  1  0
 24 23  1  0
 25 21  1  0
 26 25  2  0
 27 26  1  0
 28 27  2  0
 28 22  1  0
M  END
>  <id>  (33) 
207394

>  <inchikey>  (33) 
AGYHXRSAXIDCES-BBRMVZONSA-N

>  <alias>  (33) 
A3884a

>  <name>  (33) 
A3884a

>  <smiles>  (33) 
COc1ccccc1[C@H](NC(=O)OC(C)(C)C)C(=O)N1CCC[C@H](C(N)=O)C1

>  <path>  (33) 
/opt/xchem-fragalysis-2/maxwin/2A_HIPPO/A71EV2A_P3only_20241211/aligned_files/A3884a/A3884a_hippo.pdb

>  <distance_score>  (33) 
None

>  <energy_score>  (33) 
None

>  <compound>  (33) 
AGYHXRSAXIDCES-UHFFFAOYSA-N

>  <compound_id>  (33) 
122472

>  <target>  (33) 
A71EV2A

$$$$
A71EV2A-x3890_A_201_v1
     RDKit          3D

 21 22  0  0  0  0  0  0  0  0999 V2000
    9.6620   16.6180   19.3930 O   0  0  0  0  0  0  0  0  0  0  0  0
   10.1660   15.5210   19.6480 C   0  0  0  0  0  0  0  0  0  0  0  0
   10.7130   14.7440   18.7220 N   0  0  0  0  0  0  0  0  0  0  0  0
   10.1680   14.9660   21.0630 C   0  0  1  0  0  0  0  0  0  0  0  0
   11.2830   15.5860   21.9160 C   0  0  0  0  0  0  0  0  0  0  0  0
   11.3570   14.8950   23.2750 C   0  0  0  0  0  0  0  0  0  0  0  0
   10.0240   14.9840   23.9810 C   0  0  0  0  0  0  0  0  0  0  0  0
    8.8290   15.0750   21.8000 C   0  0  0  0  0  0  0  0  0  0  0  0
    8.9270   14.4730   23.1360 N   0  0  0  0  0  0  0  0  0  0  0  0
    8.0070   13.5800   23.5650 C   0  0  0  0  0  0  0  0  0  0  0  0
    7.1370   13.1630   22.8280 O   0  0  0  0  0  0  0  0  0  0  0  0
    8.0130   13.1800   25.0590 C   0  0  1  0  0  0  0  0  0  0  0  0
    7.5390   14.3490   25.8310 N   0  0  0  0  0  0  0  0  0  0  0  0
    7.2060   11.9290   25.3820 C   0  0  0  0  0  0  0  0  0  0  0  0
    7.6180   10.6670   24.9560 C   0  0  0  0  0  0  0  0  0  0  0  0
    8.7190   10.6530   24.1420 O   0  0  0  0  0  0  0  0  0  0  0  0
    9.2420    9.3840   23.7340 C   0  0  0  0  0  0  0  0  0  0  0  0
    6.0950   12.0060   26.2180 C   0  0  0  0  0  0  0  0  0  0  0  0
    5.4320   10.8680   26.6330 C   0  0  0  0  0  0  0  0  0  0  0  0
    5.8510    9.6380   26.2070 C   0  0  0  0  0  0  0  0  0  0  0  0
    6.9400    9.5260   25.3610 C   0  0  0  0  0  0  0  0  0  0  0  0
  2  1  2  0
  3  2  1  0
  4  2  1  6
  5  4  1  0
  6  5  1  0
  7  6  1  0
  8  4  1  0
  9  8  1  0
  9  7  1  0
 10  9  1  0
 11 10  2  0
 12 10  1  0
 12 13  1  1
 14 12  1  0
 15 14  2  0
 16 15  1  0
 17 16  1  0
 18 14  1  0
 19 18  2  0
 20 19  1  0
 21 20  2  0
 21 15  1  0
M  END
>  <id>  (34) 
207395

>  <inchikey>  (34) 
CCGPYMIAYPDEFF-GWCFXTLKSA-N

>  <alias>  (34) 
A3890a

>  <name>  (34) 
A3890a

>  <smiles>  (34) 
COc1ccccc1[C@H](N)C(=O)N1CCC[C@H](C(N)=O)C1

>  <path>  (34) 
/opt/xchem-fragalysis-2/maxwin/2A_HIPPO/A71EV2A_P3only_20241211/aligned_files/A3890a/A3890a.pdb

>  <distance_score>  (34) 
None

>  <energy_score>  (34) 
None

>  <compound>  (34) 
CCGPYMIAYPDEFF-UHFFFAOYSA-N

>  <compound_id>  (34) 
122473

>  <target>  (34) 
A71EV2A

$$$$
A71EV2A-x3895_A_201_v1
     RDKit          3D

 18 19  0  0  0  0  0  0  0  0999 V2000
   11.2160   15.5580   24.6370 O   0  0  0  0  0  0  0  0  0  0  0  0
   10.7320   15.3580   23.5300 C   0  0  0  0  0  0  0  0  0  0  0  0
   11.2680   15.8400   22.2090 C   0  0  0  0  0  0  0  0  0  0  0  0
   10.5560   14.9280   21.2130 C   0  0  2  0  0  0  0  0  0  0  0  0
   10.4080   15.4960   19.8090 C   0  0  0  0  0  0  0  0  0  0  0  0
    9.9550   16.6330   19.6210 O   0  0  0  0  0  0  0  0  0  0  0  0
   10.7240   14.6670   18.8180 N   0  0  0  0  0  0  0  0  0  0  0  0
    9.1970   14.6940   21.8810 C   0  0  0  0  0  0  0  0  0  0  0  0
    9.5530   14.7430   23.3030 N   0  0  0  0  0  0  0  0  0  0  0  0
    8.6250   14.2600   24.3320 C   0  0  0  0  0  0  0  0  0  0  0  0
    8.5230   12.7520   24.3960 C   0  0  0  0  0  0  0  0  0  0  0  0
    7.5270   12.1700   25.1820 C   0  0  0  0  0  0  0  0  0  0  0  0
    6.7240   13.0600   25.8520 O   0  0  0  0  0  0  0  0  0  0  0  0
    5.6310   12.5270   26.6200 C   0  0  0  0  0  0  0  0  0  0  0  0
    9.3950   11.9080   23.7020 C   0  0  0  0  0  0  0  0  0  0  0  0
    9.2660   10.5300   23.7910 C   0  0  0  0  0  0  0  0  0  0  0  0
    8.2770    9.9770   24.5740 C   0  0  0  0  0  0  0  0  0  0  0  0
    7.4030   10.7910   25.2750 C   0  0  0  0  0  0  0  0  0  0  0  0
  2  1  2  0
  3  2  1  0
  4  3  1  0
  4  5  1  6
  6  5  2  0
  7  5  1  0
  8  4  1  0
  9  8  1  0
  9  2  1  0
 10  9  1  0
 11 10  1  0
 12 11  2  0
 13 12  1  0
 14 13  1  0
 15 11  1  0
 16 15  2  0
 17 16  1  0
 18 17  2  0
 18 12  1  0
M  END
>  <id>  (35) 
207396

>  <inchikey>  (35) 
OROYSOLBVZCRAY-JTQLQIEISA-N

>  <alias>  (35) 
A3895a

>  <name>  (35) 
A3895a

>  <smiles>  (35) 
COc1ccccc1CN1C[C@@H](C(N)=O)CC1=O

>  <path>  (35) 
/opt/xchem-fragalysis-2/maxwin/2A_HIPPO/A71EV2A_P3only_20241211/aligned_files/A3895a/A3895a.pdb

>  <distance_score>  (35) 
None

>  <energy_score>  (35) 
None

>  <compound>  (35) 
OROYSOLBVZCRAY-UHFFFAOYSA-N

>  <compound_id>  (35) 
122474

>  <target>  (35) 
A71EV2A

$$$$
A71EV2A-x3901_A_201_v1
     RDKit          3D

 20 21  0  0  0  0  0  0  0  0999 V2000
    9.8380   16.7400   19.2630 O   0  0  0  0  0  0  0  0  0  0  0  0
   10.2410   15.5990   19.5110 C   0  0  0  0  0  0  0  0  0  0  0  0
   10.6850   14.7640   18.5900 N   0  0  0  0  0  0  0  0  0  0  0  0
   10.2550   15.0910   20.9480 C   0  0  1  0  0  0  0  0  0  0  0  0
   11.2080   15.8300   21.8060 N   0  0  0  0  0  0  0  0  0  0  0  0
   11.2840   15.2200   23.1380 C   0  0  0  0  0  0  0  0  0  0  0  0
    9.9200   15.1930   23.8030 C   0  0  0  0  0  0  0  0  0  0  0  0
    8.8610   15.0810   21.5620 C   0  0  0  0  0  0  0  0  0  0  0  0
    8.9410   14.5350   22.9200 N   0  0  0  0  0  0  0  0  0  0  0  0
    8.1240   13.5380   23.3150 C   0  0  0  0  0  0  0  0  0  0  0  0
    7.1840   13.1760   22.6400 O   0  0  0  0  0  0  0  0  0  0  0  0
    8.3710   12.9860   24.7080 C   0  0  0  0  0  0  0  0  0  0  0  0
    7.3840   11.9140   25.1040 C   0  0  0  0  0  0  0  0  0  0  0  0
    7.6200   10.5990   24.7160 C   0  0  0  0  0  0  0  0  0  0  0  0
    8.6630   10.4470   23.8370 O   0  0  0  0  0  0  0  0  0  0  0  0
    9.0870    9.1200   23.5120 C   0  0  0  0  0  0  0  0  0  0  0  0
    6.3410   12.1680   25.9920 C   0  0  0  0  0  0  0  0  0  0  0  0
    5.5730   11.1360   26.5050 C   0  0  0  0  0  0  0  0  0  0  0  0
    5.8240    9.8410   26.1230 C   0  0  0  0  0  0  0  0  0  0  0  0
    6.8400    9.5640   25.2160 C   0  0  0  0  0  0  0  0  0  0  0  0
  2  1  2  0
  3  2  1  0
  4  2  1  6
  5  4  1  0
  6  5  1  0
  7  6  1  0
  8  4  1  0
  9  8  1  0
  9  7  1  0
 10  9  1  0
 11 10  2  0
 12 10  1  0
 13 12  1  0
 14 13  2  0
 15 14  1  0
 16 15  1  0
 17 13  1  0
 18 17  2  0
 19 18  1  0
 20 19  2  0
 20 14  1  0
M  END
>  <id>  (36) 
207397

>  <inchikey>  (36) 
DRNIUJKTSBJJIK-NSHDSACASA-N

>  <alias>  (36) 
A3901a

>  <name>  (36) 
A3901a

>  <smiles>  (36) 
COc1ccccc1CC(=O)N1CCN[C@H](C(N)=O)C1

>  <path>  (36) 
/opt/xchem-fragalysis-2/maxwin/2A_HIPPO/A71EV2A_P3only_20241211/aligned_files/A3901a/A3901a.pdb

>  <distance_score>  (36) 
None

>  <energy_score>  (36) 
None

>  <compound>  (36) 
DRNIUJKTSBJJIK-UHFFFAOYSA-N

>  <compound_id>  (36) 
122475

>  <target>  (36) 
A71EV2A

$$$$
A71EV2A-x3914_A_201_v1
     RDKit          3D

 22 24  0  0  0  0  0  0  0  0999 V2000
   10.0310   16.8130   19.4300 O   0  0  0  0  0  0  0  0  0  0  0  0
   10.3170   15.6470   19.7180 C   0  0  0  0  0  0  0  0  0  0  0  0
   10.7290   14.7700   18.8180 N   0  0  0  0  0  0  0  0  0  0  0  0
   10.2920   15.1630   21.1580 C   0  0  1  0  0  0  0  0  0  0  0  0
   11.3390   15.9130   21.9980 C   0  0  0  0  0  0  0  0  0  0  0  0
   11.3300   15.4790   23.4670 C   0  0  0  0  0  0  0  0  0  0  0  0
    9.9320   15.5780   24.0410 C   0  0  0  0  0  0  0  0  0  0  0  0
    8.9100   15.2540   21.8210 C   0  0  0  0  0  0  0  0  0  0  0  0
    8.9730   14.8160   23.2200 N   0  0  0  0  0  0  0  0  0  0  0  0
    8.1420   13.8580   23.7000 C   0  0  0  0  0  0  0  0  0  0  0  0
    7.4050   13.2100   22.9650 O   0  0  0  0  0  0  0  0  0  0  0  0
    8.1200   13.6540   25.2050 C   0  0  0  0  0  0  0  0  0  0  0  0
    7.4860   12.3390   25.6080 C   0  0  0  0  0  0  0  0  0  0  0  0
    6.4670   12.3090   26.5640 C   0  0  0  0  0  0  0  0  0  0  0  0
    5.8650   11.1190   26.9460 C   0  0  0  0  0  0  0  0  0  0  0  0
    6.2560    9.9180   26.3710 C   0  0  0  0  0  0  0  0  0  0  0  0
    7.2800    9.9040   25.4050 C   0  0  0  0  0  0  0  0  0  0  0  0
    7.9100   11.1140   25.0430 C   0  0  0  0  0  0  0  0  0  0  0  0
    8.9450   10.7260   24.1470 C   0  0  0  0  0  0  0  0  0  0  0  0
    7.8480    8.8290   24.7480 N   0  0  0  0  0  0  0  0  0  0  0  0
    8.8510    9.3990   24.0200 N   0  0  0  0  0  0  0  0  0  0  0  0
    9.6850    8.5870   23.1340 C   0  0  0  0  0  0  0  0  0  0  0  0
  2  1  2  0
  3  2  1  0
  4  2  1  6
  5  4  1  0
  6  5  1  0
  7  6  1  0
  8  4  1  0
  9  8  1  0
  9  7  1  0
 10  9  1  0
 11 10  2  0
 12 10  1  0
 13 12  1  0
 14 13  2  0
 15 14  1  0
 16 15  2  0
 17 16  1  0
 18 17  1  0
 18 13  1  0
 19 18  2  0
 20 17  2  0
 21 20  1  0
 21 19  1  0
 22 21  1  0
M  END
>  <id>  (37) 
207398

>  <inchikey>  (37) 
GWEIDNCYZCGNCA-LBPRGKRZSA-N

>  <alias>  (37) 
A3914a

>  <name>  (37) 
A3914a

>  <smiles>  (37) 
Cn1cc2c(CC(=O)N3CCC[C@H](C(N)=O)C3)cccc2n1

>  <path>  (37) 
/opt/xchem-fragalysis-2/maxwin/2A_HIPPO/A71EV2A_P3only_20241211/aligned_files/A3914a/A3914a.pdb

>  <distance_score>  (37) 
None

>  <energy_score>  (37) 
None

>  <compound>  (37) 
GWEIDNCYZCGNCA-UHFFFAOYSA-N

>  <compound_id>  (37) 
113

>  <target>  (37) 
A71EV2A

$$$$
A71EV2A-x3936_A_201_v1
     RDKit          3D

 20 21  0  0  0  0  0  0  0  0999 V2000
    9.3560   16.4720   19.6850 O   0  0  0  0  0  0  0  0  0  0  0  0
    9.8840   15.3690   19.8640 C   0  0  0  0  0  0  0  0  0  0  0  0
   10.4460   14.6620   18.8860 N   0  0  0  0  0  0  0  0  0  0  0  0
    9.9620   14.7610   21.2510 C   0  0  1  0  0  0  0  0  0  0  0  0
   11.1190   15.3720   22.0770 C   0  0  0  0  0  0  0  0  0  0  0  0
   11.2040   14.7000   23.4460 C   0  0  0  0  0  0  0  0  0  0  0  0
    9.8730   14.8410   24.1610 C   0  0  0  0  0  0  0  0  0  0  0  0
    8.6540   14.8960   22.0320 C   0  0  0  0  0  0  0  0  0  0  0  0
    8.7970   14.2550   23.3440 N   0  0  0  0  0  0  0  0  0  0  0  0
    8.0310   13.2040   23.6930 C   0  0  0  0  0  0  0  0  0  0  0  0
    7.1120   12.8540   22.9790 O   0  0  0  0  0  0  0  0  0  0  0  0
    8.2240   12.4410   25.0090 C   0  0  2  0  0  0  0  0  0  0  0  0
    9.3610   11.4410   24.9550 C   0  0  0  0  0  0  0  0  0  0  0  0
    9.1580   10.5500   23.8810 O   0  0  0  0  0  0  0  0  0  0  0  0
    9.7010    9.2930   24.1280 C   0  0  0  0  0  0  0  0  0  0  0  0
    7.0430   11.6350   25.2050 O   0  0  0  0  0  0  0  0  0  0  0  0
    6.0100   12.0420   26.1230 C   0  0  0  0  0  0  0  0  0  0  0  0
    5.8380   13.5510   26.2850 C   0  0  0  0  0  0  0  0  0  0  0  0
    7.1700   14.3090   26.3500 C   0  0  0  0  0  0  0  0  0  0  0  0
    8.3660   13.3730   26.2090 C   0  0  0  0  0  0  0  0  0  0  0  0
  2  1  2  0
  3  2  1  0
  4  2  1  6
  5  4  1  0
  6  5  1  0
  7  6  1  0
  8  4  1  0
  9  8  1  0
  9  7  1  0
 10  9  1  0
 11 10  2  0
 12 10  1  0
 12 13  1  6
 14 13  1  0
 15 14  1  0
 16 12  1  0
 17 16  1  0
 18 17  1  0
 19 18  1  0
 20 19  1  0
 20 12  1  0
M  END
>  <id>  (38) 
207399

>  <inchikey>  (38) 
UHSOMRQQUOKZEB-FZMZJTMJSA-N

>  <alias>  (38) 
A3936a

>  <name>  (38) 
A3936a

>  <smiles>  (38) 
COC[C@]1(C(=O)N2CCC[C@H](C(N)=O)C2)CCCCO1

>  <path>  (38) 
/opt/xchem-fragalysis-2/maxwin/2A_HIPPO/A71EV2A_P3only_20241211/aligned_files/A3936a/A3936a.pdb

>  <distance_score>  (38) 
None

>  <energy_score>  (38) 
None

>  <compound>  (38) 
UHSOMRQQUOKZEB-UHFFFAOYSA-N

>  <compound_id>  (38) 
122476

>  <target>  (38) 
A71EV2A

$$$$
A71EV2A-x3956_A_201_v1
     RDKit          3D

 19 20  0  0  0  0  0  0  0  0999 V2000
   11.1670   15.8480   24.4090 O   0  0  0  0  0  0  0  0  0  0  0  0
   10.7230   15.5880   23.2910 C   0  0  0  0  0  0  0  0  0  0  0  0
   11.3070   15.9860   21.9650 C   0  0  0  0  0  0  0  0  0  0  0  0
   10.5620   15.0590   20.9820 C   0  0  2  0  0  0  0  0  0  0  0  0
   10.4940   15.5110   19.5330 C   0  0  0  0  0  0  0  0  0  0  0  0
   10.8950   14.7840   18.6220 O   0  0  0  0  0  0  0  0  0  0  0  0
    9.9140   16.6750   19.3050 N   0  0  0  0  0  0  0  0  0  0  0  0
    9.1940   14.9240   21.6310 C   0  0  0  0  0  0  0  0  0  0  0  0
    9.5540   14.9500   23.0520 N   0  0  0  0  0  0  0  0  0  0  0  0
    8.7260   14.3420   24.1030 C   0  0  0  0  0  0  0  0  0  0  0  0
    8.9730   12.8360   24.1570 C   0  0  0  0  0  0  0  0  0  0  0  0
    7.8980   11.9810   24.7880 C   0  0  0  0  0  0  0  0  0  0  0  0
    7.8890   10.6070   24.5490 C   0  0  0  0  0  0  0  0  0  0  0  0
    8.8260   10.1870   23.6380 O   0  0  0  0  0  0  0  0  0  0  0  0
    8.9540    8.7840   23.4020 C   0  0  0  0  0  0  0  0  0  0  0  0
    6.9520   12.5060   25.6710 C   0  0  0  0  0  0  0  0  0  0  0  0
    6.0750   11.6700   26.3520 C   0  0  0  0  0  0  0  0  0  0  0  0
    6.1200   10.3020   26.1450 C   0  0  0  0  0  0  0  0  0  0  0  0
    7.0100    9.7670   25.2250 C   0  0  0  0  0  0  0  0  0  0  0  0
  2  1  2  0
  3  2  1  0
  4  3  1  0
  4  5  1  6
  6  5  2  0
  7  5  1  0
  8  4  1  0
  9  8  1  0
  9  2  1  0
 10  9  1  0
 11 10  1  0
 12 11  1  0
 13 12  2  0
 14 13  1  0
 15 14  1  0
 16 12  1  0
 17 16  2  0
 18 17  1  0
 19 18  2  0
 19 13  1  0
M  END
>  <id>  (39) 
207400

>  <inchikey>  (39) 
IZZURCOVVRSJHS-NSHDSACASA-N

>  <alias>  (39) 
A3956a

>  <name>  (39) 
A3956a

>  <smiles>  (39) 
COc1ccccc1CCN1C[C@@H](C(N)=O)CC1=O

>  <path>  (39) 
/opt/xchem-fragalysis-2/maxwin/2A_HIPPO/A71EV2A_P3only_20241211/aligned_files/A3956a/A3956a.pdb

>  <distance_score>  (39) 
None

>  <energy_score>  (39) 
None

>  <compound>  (39) 
IZZURCOVVRSJHS-UHFFFAOYSA-N

>  <compound_id>  (39) 
122477

>  <target>  (39) 
A71EV2A

$$$$
A71EV2A-x3963_A_201_v1
     RDKit          3D

 19 20  0  0  0  0  0  0  0  0999 V2000
    7.2110   13.2620   22.7050 O   0  0  0  0  0  0  0  0  0  0  0  0
    8.1270   13.6290   23.4220 C   0  0  0  0  0  0  0  0  0  0  0  0
    8.8570   14.7260   23.1480 N   0  0  0  0  0  0  0  0  0  0  0  0
    9.8530   15.3290   24.0490 C   0  0  0  0  0  0  0  0  0  0  0  0
   11.2480   15.3110   23.4300 C   0  0  0  0  0  0  0  0  0  0  0  0
   11.2190   15.8660   22.0040 C   0  0  0  0  0  0  0  0  0  0  0  0
    8.8000   15.3190   21.8110 C   0  0  0  0  0  0  0  0  0  0  0  0
   10.1660   15.1480   21.1460 C   0  0  1  0  0  0  0  0  0  0  0  0
   10.2000   15.6110   19.7010 C   0  0  0  0  0  0  0  0  0  0  0  0
   10.5550   14.8470   18.7970 O   0  0  0  0  0  0  0  0  0  0  0  0
    9.8030   16.8570   19.4780 N   0  0  0  0  0  0  0  0  0  0  0  0
    8.5990   12.8270   24.6200 C   0  0  0  0  0  0  0  0  0  0  0  0
    7.5870   11.8080   25.0820 C   0  0  0  0  0  0  0  0  0  0  0  0
    7.7780   10.4010   24.8950 C   0  0  0  0  0  0  0  0  0  0  0  0
    8.8170    9.9180   24.1930 N   0  0  0  0  0  0  0  0  0  0  0  0
    6.9620    9.5000   25.4790 N   0  0  0  0  0  0  0  0  0  0  0  0
    5.9820    9.9420   26.2800 C   0  0  0  0  0  0  0  0  0  0  0  0
    5.7190   11.2690   26.4990 C   0  0  0  0  0  0  0  0  0  0  0  0
    6.5190   12.2080   25.8800 C   0  0  0  0  0  0  0  0  0  0  0  0
  2  1  2  0
  3  2  1  0
  4  3  1  0
  5  4  1  0
  6  5  1  0
  7  3  1  0
  8  7  1  0
  8  6  1  0
  8  9  1  6
 10  9  2  0
 11  9  1  0
 12  2  1  0
 13 12  1  0
 14 13  2  0
 15 14  1  0
 16 14  1  0
 17 16  2  0
 18 17  1  0
 19 18  2  0
 19 13  1  0
M  END
>  <id>  (40) 
207401

>  <inchikey>  (40) 
UWGHAGSZEJRSBU-JTQLQIEISA-N

>  <alias>  (40) 
A3963a

>  <name>  (40) 
A3963a

>  <smiles>  (40) 
NC(=O)[C@H]1CCCN(C(=O)Cc2cccnc2N)C1

>  <path>  (40) 
/opt/xchem-fragalysis-2/maxwin/2A_HIPPO/A71EV2A_P3only_20241211/aligned_files/A3963a/A3963a_hippo.pdb

>  <distance_score>  (40) 
None

>  <energy_score>  (40) 
None

>  <compound>  (40) 
UWGHAGSZEJRSBU-UHFFFAOYSA-N

>  <compound_id>  (40) 
122478

>  <target>  (40) 
A71EV2A

$$$$
A71EV2A-x3977_A_201_v1
     RDKit          3D

 18 18  0  0  0  0  0  0  0  0999 V2000
    9.7630   16.6950   19.4540 O   0  0  0  0  0  0  0  0  0  0  0  0
   10.3200   15.6060   19.6490 C   0  0  0  0  0  0  0  0  0  0  0  0
   10.7080   14.8040   18.6690 N   0  0  0  0  0  0  0  0  0  0  0  0
   10.6100   15.1260   21.0480 C   0  0  0  0  0  0  0  0  0  0  0  0
    9.3710   15.1940   21.9260 C   0  0  0  0  0  0  0  0  0  0  0  0
    9.5460   14.5190   23.2140 N   0  0  0  0  0  0  0  0  0  0  0  0
   10.6870   14.9630   24.0140 C   0  0  0  0  0  0  0  0  0  0  0  0
    8.6950   13.5380   23.5970 C   0  0  0  0  0  0  0  0  0  0  0  0
    7.7190   13.2250   22.9150 O   0  0  0  0  0  0  0  0  0  0  0  0
    8.9500   12.8860   24.9440 C   0  0  0  0  0  0  0  0  0  0  0  0
    7.8840   11.8740   25.3030 C   0  0  0  0  0  0  0  0  0  0  0  0
    7.9780   10.5660   24.8250 C   0  0  0  0  0  0  0  0  0  0  0  0
    8.9590   10.3670   23.8880 O   0  0  0  0  0  0  0  0  0  0  0  0
    9.2930    9.0160   23.5340 C   0  0  0  0  0  0  0  0  0  0  0  0
    6.8660   12.1800   26.2030 C   0  0  0  0  0  0  0  0  0  0  0  0
    5.9960   11.1990   26.6510 C   0  0  0  0  0  0  0  0  0  0  0  0
    6.1310    9.9050   26.2100 C   0  0  0  0  0  0  0  0  0  0  0  0
    7.1140    9.5780   25.2840 C   0  0  0  0  0  0  0  0  0  0  0  0
  2  1  2  0
  3  2  1  0
  4  2  1  0
  5  4  1  0
  6  5  1  0
  7  6  1  0
  8  6  1  0
  9  8  2  0
 10  8  1  0
 11 10  1  0
 12 11  2  0
 13 12  1  0
 14 13  1  0
 15 11  1  0
 16 15  2  0
 17 16  1  0
 18 17  2  0
 18 12  1  0
M  END
>  <id>  (41) 
207402

>  <inchikey>  (41) 
HYRNBUDTYVNBBW-UHFFFAOYSA-N

>  <alias>  (41) 
A3977a

>  <name>  (41) 
A3977a

>  <smiles>  (41) 
COc1ccccc1CC(=O)N(C)CCC(N)=O

>  <path>  (41) 
/opt/xchem-fragalysis-2/maxwin/2A_HIPPO/A71EV2A_P3only_20241211/aligned_files/A3977a/A3977a.pdb

>  <distance_score>  (41) 
None

>  <energy_score>  (41) 
None

>  <compound>  (41) 
HYRNBUDTYVNBBW-UHFFFAOYSA-N

>  <compound_id>  (41) 
122479

>  <target>  (41) 
A71EV2A

$$$$
A71EV2A-x3977_A_202_v1
     RDKit          3D

 18 18  0  0  0  0  0  0  0  0999 V2000
   17.4400   -0.2190   20.0310 O   0  0  0  0  0  0  0  0  0  0  0  0
   18.6350    0.0880   19.9470 C   0  0  0  0  0  0  0  0  0  0  0  0
   19.0530    1.2850   19.5370 N   0  0  0  0  0  0  0  0  0  0  0  0
   19.7160   -0.9000   20.3230 C   0  0  0  0  0  0  0  0  0  0  0  0
   19.2430   -2.3450   20.1980 C   0  0  0  0  0  0  0  0  0  0  0  0
   19.2250   -2.8240   18.8140 N   0  0  0  0  0  0  0  0  0  0  0  0
   20.5190   -2.8880   18.1420 C   0  0  0  0  0  0  0  0  0  0  0  0
   18.1030   -3.2280   18.1770 C   0  0  0  0  0  0  0  0  0  0  0  0
   18.1330   -3.6240   17.0190 O   0  0  0  0  0  0  0  0  0  0  0  0
   16.8070   -3.2710   18.9660 C   0  0  0  0  0  0  0  0  0  0  0  0
   15.8410   -4.2820   18.3900 C   0  0  0  0  0  0  0  0  0  0  0  0
   16.1580   -5.6430   18.3840 C   0  0  0  0  0  0  0  0  0  0  0  0
   17.3970   -5.9440   18.8790 O   0  0  0  0  0  0  0  0  0  0  0  0
   17.7170   -7.3140   19.0990 C   0  0  0  0  0  0  0  0  0  0  0  0
   14.6000   -3.8900   17.8870 C   0  0  0  0  0  0  0  0  0  0  0  0
   13.6940   -4.8340   17.4310 C   0  0  0  0  0  0  0  0  0  0  0  0
   14.0200   -6.1740   17.4410 C   0  0  0  0  0  0  0  0  0  0  0  0
   15.2570   -6.5840   17.9050 C   0  0  0  0  0  0  0  0  0  0  0  0
  2  1  2  0
  3  2  1  0
  4  2  1  0
  5  4  1  0
  6  5  1  0
  7  6  1  0
  8  6  1  0
  9  8  2  0
 10  8  1  0
 11 10  1  0
 12 11  2  0
 13 12  1  0
 14 13  1  0
 15 11  1  0
 16 15  2  0
 17 16  1  0
 18 17  2  0
 18 12  1  0
M  END
>  <id>  (42) 
207403

>  <inchikey>  (42) 
HYRNBUDTYVNBBW-UHFFFAOYSA-N

>  <alias>  (42) 
A3977b

>  <name>  (42) 
A3977b

>  <smiles>  (42) 
COc1ccccc1CC(=O)N(C)CCC(N)=O

>  <path>  (42) 
/opt/xchem-fragalysis-2/maxwin/2A_HIPPO/A71EV2A_P3only_20241211/aligned_files/A3977b/A3977b.pdb

>  <distance_score>  (42) 
None

>  <energy_score>  (42) 
None

>  <compound>  (42) 
HYRNBUDTYVNBBW-UHFFFAOYSA-N

>  <compound_id>  (42) 
122479

>  <target>  (42) 
A71EV2A

$$$$
A71EV2A-x3982_A_201_v1
     RDKit          3D

 24 26  0  0  0  0  0  0  0  0999 V2000
    7.3730   13.4620   22.7650 O   0  0  0  0  0  0  0  0  0  0  0  0
    8.1760   13.9730   23.5280 C   0  0  0  0  0  0  0  0  0  0  0  0
    8.8970   15.0640   23.1820 N   0  0  0  0  0  0  0  0  0  0  0  0
    9.8350   15.7980   24.0470 C   0  0  0  0  0  0  0  0  0  0  0  0
   11.2460   15.7440   23.4820 C   0  0  0  0  0  0  0  0  0  0  0  0
   11.2610   16.2030   22.0230 C   0  0  0  0  0  0  0  0  0  0  0  0
    8.8570   15.5900   21.8170 C   0  0  0  0  0  0  0  0  0  0  0  0
   10.2360   15.4270   21.1730 C   0  0  1  0  0  0  0  0  0  0  0  0
   10.1710   15.9760   19.7590 C   0  0  0  0  0  0  0  0  0  0  0  0
    9.8520   17.1470   19.5470 O   0  0  0  0  0  0  0  0  0  0  0  0
   10.4460   15.1130   18.7920 N   0  0  0  0  0  0  0  0  0  0  0  0
    8.4450   13.3600   24.9060 C   0  0  0  0  0  0  0  0  0  0  0  0
    8.3880   11.8390   24.8140 C   0  0  0  0  0  0  0  0  0  0  0  0
    9.3170   11.1640   24.0290 C   0  0  0  0  0  0  0  0  0  0  0  0
    9.2420    9.7950   23.8630 C   0  0  0  0  0  0  0  0  0  0  0  0
    8.2530    9.0780   24.4850 C   0  0  0  0  0  0  0  0  0  0  0  0
    7.3330    9.7270   25.2820 C   0  0  0  0  0  0  0  0  0  0  0  0
    7.3970   11.1010   25.4440 C   0  0  0  0  0  0  0  0  0  0  0  0
    7.6130   14.0350   25.9920 C   0  0  0  0  0  0  0  0  0  0  0  0
    8.2320   14.5810   27.1060 C   0  0  0  0  0  0  0  0  0  0  0  0
    7.4930   15.2220   28.0820 C   0  0  0  0  0  0  0  0  0  0  0  0
    6.1260   15.3440   27.9490 C   0  0  0  0  0  0  0  0  0  0  0  0
    5.5020   14.8290   26.8390 C   0  0  0  0  0  0  0  0  0  0  0  0
    6.2390   14.1750   25.8670 C   0  0  0  0  0  0  0  0  0  0  0  0
  2  1  2  0
  3  2  1  0
  4  3  1  0
  5  4  1  0
  6  5  1  0
  7  3  1  0
  8  7  1  0
  8  6  1  0
  8  9  1  6
 10  9  2  0
 11  9  1  0
 12  2  1  0
 13 12  1  0
 14 13  2  0
 15 14  1  0
 16 15  2  0
 17 16  1  0
 18 17  2  0
 18 13  1  0
 19 12  1  0
 20 19  2  0
 21 20  1  0
 22 21  2  0
 23 22  1  0
 24 23  2  0
 24 19  1  0
M  END
>  <id>  (43) 
207404

>  <inchikey>  (43) 
VJCDCBHTHBGHRC-KRWDZBQOSA-N

>  <alias>  (43) 
A3982a

>  <name>  (43) 
A3982a

>  <smiles>  (43) 
NC(=O)[C@H]1CCCN(C(=O)C(c2ccccc2)c2ccccc2)C1

>  <path>  (43) 
/opt/xchem-fragalysis-2/maxwin/2A_HIPPO/A71EV2A_P3only_20241211/aligned_files/A3982a/A3982a.pdb

>  <distance_score>  (43) 
None

>  <energy_score>  (43) 
None

>  <compound>  (43) 
VJCDCBHTHBGHRC-UHFFFAOYSA-N

>  <compound_id>  (43) 
122480

>  <target>  (43) 
A71EV2A

$$$$
A71EV2A-x3989_A_201_v1
     RDKit          3D

 22 23  0  0  0  0  0  0  0  0999 V2000
    9.2640   11.1280   23.5220 Cl  0  0  0  0  0  0  0  0  0  0  0  0
    8.0050   11.3320   24.7020 C   0  0  0  0  0  0  0  0  0  0  0  0
    7.5410   10.2110   25.3670 C   0  0  0  0  0  0  0  0  0  0  0  0
    6.5850   10.3490   26.3580 C   0  0  0  0  0  0  0  0  0  0  0  0
    6.0950   11.6070   26.6850 C   0  0  0  0  0  0  0  0  0  0  0  0
    5.0780   11.7910   27.7590 C   0  0  0  0  0  0  0  0  0  0  0  0
    5.1370   10.8510   28.6790 F   0  0  0  0  0  0  0  0  0  0  0  0
    5.2430   12.9170   28.4230 F   0  0  0  0  0  0  0  0  0  0  0  0
    3.8390   11.8500   27.2780 F   0  0  0  0  0  0  0  0  0  0  0  0
    6.5690   12.7110   25.9910 C   0  0  0  0  0  0  0  0  0  0  0  0
    7.5200   12.6030   24.9830 C   0  0  0  0  0  0  0  0  0  0  0  0
    7.9060   13.8270   24.1850 C   0  0  0  0  0  0  0  0  0  0  0  0
    9.3430   14.2460   24.4280 C   0  0  0  0  0  0  0  0  0  0  0  0
    9.8480   14.1950   25.5380 O   0  0  0  0  0  0  0  0  0  0  0  0
   10.0140   14.7110   23.3540 N   0  0  0  0  0  0  0  0  0  0  0  0
   11.3670   15.2740   23.4380 C   0  0  0  0  0  0  0  0  0  0  0  0
   11.5310   15.9570   22.0830 C   0  0  0  0  0  0  0  0  0  0  0  0
    9.4800   14.7630   21.9870 C   0  0  0  0  0  0  0  0  0  0  0  0
   10.7360   15.0200   21.1580 C   0  0  1  0  0  0  0  0  0  0  0  0
   10.4220   15.5610   19.7710 C   0  0  0  0  0  0  0  0  0  0  0  0
    9.9110   16.6770   19.6140 O   0  0  0  0  0  0  0  0  0  0  0  0
   10.7200   14.7530   18.7650 N   0  0  0  0  0  0  0  0  0  0  0  0
  2  1  1  0
  3  2  2  0
  4  3  1  0
  5  4  2  0
  6  5  1  0
  6  7  1  0
  8  6  1  0
  9  6  1  0
 10  5  1  0
 11 10  2  0
 11  2  1  0
 12 11  1  0
 13 12  1  0
 14 13  2  0
 15 13  1  0
 16 15  1  0
 17 16  1  0
 18 15  1  0
 19 18  1  0
 19 17  1  0
 19 20  1  6
 21 20  2  0
 22 20  1  0
M  END
>  <id>  (44) 
207405

>  <inchikey>  (44) 
HVQIWPCPNWMLEJ-QMMMGPOBSA-N

>  <alias>  (44) 
A3989a

>  <name>  (44) 
A3989a

>  <smiles>  (44) 
NC(=O)[C@H]1CCN(C(=O)Cc2cc(C(F)(F)F)ccc2Cl)C1

>  <path>  (44) 
/opt/xchem-fragalysis-2/maxwin/2A_HIPPO/A71EV2A_P3only_20241211/aligned_files/A3989a/A3989a.pdb

>  <distance_score>  (44) 
None

>  <energy_score>  (44) 
None

>  <compound>  (44) 
HVQIWPCPNWMLEJ-UHFFFAOYSA-N

>  <compound_id>  (44) 
122481

>  <target>  (44) 
A71EV2A

$$$$
A71EV2A-x3992_A_201_v1
     RDKit          3D

 20 21  0  0  0  0  0  0  0  0999 V2000
    9.9130   16.7700   19.6520 O   0  0  0  0  0  0  0  0  0  0  0  0
   10.4490   15.6700   19.8000 C   0  0  0  0  0  0  0  0  0  0  0  0
   10.7690   14.8790   18.7780 N   0  0  0  0  0  0  0  0  0  0  0  0
   10.6590   15.0790   21.1850 C   0  0  1  0  0  0  0  0  0  0  0  0
   11.3240   16.0220   22.2120 C   0  0  0  0  0  0  0  0  0  0  0  0
   11.0450   15.3300   23.5440 C   0  0  0  0  0  0  0  0  0  0  0  0
    9.3360   14.7710   21.8970 C   0  0  0  0  0  0  0  0  0  0  0  0
    9.7810   14.6120   23.2850 N   0  0  0  0  0  0  0  0  0  0  0  0
    9.1850   13.8140   24.2170 C   0  0  0  0  0  0  0  0  0  0  0  0
    9.7120   13.6250   25.3070 O   0  0  0  0  0  0  0  0  0  0  0  0
    8.0120   13.2200   23.8400 N   0  0  0  0  0  0  0  0  0  0  0  0
    7.3850   12.2420   24.6730 C   0  0  0  0  0  0  0  0  0  0  0  0
    7.6860   10.8800   24.5090 C   0  0  0  0  0  0  0  0  0  0  0  0
    8.6970   10.6090   23.6240 O   0  0  0  0  0  0  0  0  0  0  0  0
    9.1090    9.2440   23.4510 C   0  0  0  0  0  0  0  0  0  0  0  0
    6.4170   12.5990   25.6110 C   0  0  0  0  0  0  0  0  0  0  0  0
    5.9530   14.2590   25.7740 Cl  0  0  0  0  0  0  0  0  0  0  0  0
    5.7510   11.6580   26.3700 C   0  0  0  0  0  0  0  0  0  0  0  0
    6.0320   10.3170   26.1780 C   0  0  0  0  0  0  0  0  0  0  0  0
    6.9920    9.9250   25.2470 C   0  0  0  0  0  0  0  0  0  0  0  0
  2  1  2  0
  3  2  1  0
  4  2  1  6
  5  4  1  0
  6  5  1  0
  7  4  1  0
  8  7  1  0
  8  6  1  0
  9  8  1  0
 10  9  2  0
 11  9  1  0
 12 11  1  0
 13 12  2  0
 14 13  1  0
 15 14  1  0
 16 12  1  0
 17 16  1  0
 18 16  2  0
 19 18  1  0
 20 19  2  0
 20 13  1  0
M  END
>  <id>  (45) 
207406

>  <inchikey>  (45) 
MROSVTPISGFMGH-QMMMGPOBSA-N

>  <alias>  (45) 
A3992a

>  <name>  (45) 
A3992a

>  <smiles>  (45) 
COc1cccc(Cl)c1NC(=O)N1CC[C@H](C(N)=O)C1

>  <path>  (45) 
/opt/xchem-fragalysis-2/maxwin/2A_HIPPO/A71EV2A_P3only_20241211/aligned_files/A3992a/A3992a_hippo.pdb

>  <distance_score>  (45) 
None

>  <energy_score>  (45) 
None

>  <compound>  (45) 
MROSVTPISGFMGH-UHFFFAOYSA-N

>  <compound_id>  (45) 
122482

>  <target>  (45) 
A71EV2A

$$$$
A71EV2A-x4012_A_201_v1
     RDKit          3D

 20 21  0  0  0  0  0  0  0  0999 V2000
    9.7810   16.8770   19.5630 O   0  0  0  0  0  0  0  0  0  0  0  0
   10.1790   15.7280   19.7930 C   0  0  0  0  0  0  0  0  0  0  0  0
   10.5840   14.9030   18.8280 N   0  0  0  0  0  0  0  0  0  0  0  0
   10.1820   15.1640   21.2030 C   0  0  1  0  0  0  0  0  0  0  0  0
   11.2490   15.8180   22.1030 C   0  0  0  0  0  0  0  0  0  0  0  0
   11.2550   15.1540   23.4870 C   0  0  0  0  0  0  0  0  0  0  0  0
    9.8770   15.2090   24.1190 C   0  0  0  0  0  0  0  0  0  0  0  0
    8.7990   15.2960   21.8500 C   0  0  0  0  0  0  0  0  0  0  0  0
    8.8320   14.7190   23.1990 N   0  0  0  0  0  0  0  0  0  0  0  0
    7.9700   13.6930   23.4840 C   0  0  0  0  0  0  0  0  0  0  0  0
    7.2240   13.2240   22.6460 O   0  0  0  0  0  0  0  0  0  0  0  0
    7.9850   13.2260   24.7600 N   0  0  0  0  0  0  0  0  0  0  0  0
    7.1720   12.1590   25.2090 C   0  0  0  0  0  0  0  0  0  0  0  0
    7.4920   10.8410   24.7670 C   0  0  0  0  0  0  0  0  0  0  0  0
    8.5740   10.7620   23.9350 O   0  0  0  0  0  0  0  0  0  0  0  0
    8.9800    9.4540   23.4820 C   0  0  0  0  0  0  0  0  0  0  0  0
    6.1200   12.3380   26.1100 C   0  0  0  0  0  0  0  0  0  0  0  0
    5.4210   11.2310   26.5730 C   0  0  0  0  0  0  0  0  0  0  0  0
    5.7350    9.9610   26.1320 C   0  0  0  0  0  0  0  0  0  0  0  0
    6.7720    9.7530   25.2290 C   0  0  0  0  0  0  0  0  0  0  0  0
  2  1  2  0
  3  2  1  0
  4  2  1  6
  5  4  1  0
  6  5  1  0
  7  6  1  0
  8  4  1  0
  9  8  1  0
  9  7  1  0
 10  9  1  0
 11 10  2  0
 12 10  1  0
 13 12  1  0
 14 13  2  0
 15 14  1  0
 16 15  1  0
 17 13  1  0
 18 17  2  0
 19 18  1  0
 20 19  2  0
 20 14  1  0
M  END
>  <id>  (46) 
207407

>  <inchikey>  (46) 
IQHVDKFVLUCUBM-JTQLQIEISA-N

>  <alias>  (46) 
A4012a

>  <name>  (46) 
A4012a

>  <smiles>  (46) 
COc1ccccc1NC(=O)N1CCC[C@H](C(N)=O)C1

>  <path>  (46) 
/opt/xchem-fragalysis-2/maxwin/2A_HIPPO/A71EV2A_P3only_20241211/aligned_files/A4012a/A4012a_hippo.pdb

>  <distance_score>  (46) 
None

>  <energy_score>  (46) 
None

>  <compound>  (46) 
IQHVDKFVLUCUBM-UHFFFAOYSA-N

>  <compound_id>  (46) 
122483

>  <target>  (46) 
A71EV2A

$$$$
A71EV2A-x4017_A_201_v1
     RDKit          3D

 22 24  0  0  0  0  0  0  0  0999 V2000
   10.0920   16.8330   19.3940 O   0  0  0  0  0  0  0  0  0  0  0  0
   10.5900   15.7340   19.6460 C   0  0  0  0  0  0  0  0  0  0  0  0
   10.7430   14.7850   18.7360 N   0  0  0  0  0  0  0  0  0  0  0  0
   11.0450   15.3850   21.0520 C   0  0  1  0  0  0  0  0  0  0  0  0
   11.8810   16.5210   21.6530 C   0  0  0  0  0  0  0  0  0  0  0  0
   12.2980   16.2080   23.0860 C   0  0  0  0  0  0  0  0  0  0  0  0
   11.0930   15.9250   23.9590 C   0  0  0  0  0  0  0  0  0  0  0  0
    9.8270   15.2360   21.9660 C   0  0  0  0  0  0  0  0  0  0  0  0
   10.2630   14.8990   23.3250 N   0  0  0  0  0  0  0  0  0  0  0  0
    9.9020   13.7820   24.0010 C   0  0  0  0  0  0  0  0  0  0  0  0
   10.0490   13.7010   25.2160 O   0  0  0  0  0  0  0  0  0  0  0  0
    9.4380   12.7570   23.2430 N   0  0  0  0  0  0  0  0  0  0  0  0
    8.8800   11.5820   23.7680 C   0  0  0  0  0  0  0  0  0  0  0  0
    9.3730   10.3120   23.4770 C   0  0  0  0  0  0  0  0  0  0  0  0
    8.7250    9.1800   23.9470 C   0  0  0  0  0  0  0  0  0  0  0  0
    7.6030    9.2890   24.7570 C   0  0  0  0  0  0  0  0  0  0  0  0
    7.1480   10.5550   25.0890 C   0  0  0  0  0  0  0  0  0  0  0  0
    6.1520   10.9640   25.9170 N   0  0  0  0  0  0  0  0  0  0  0  0
    5.3380   10.1550   26.8060 C   0  0  0  0  0  0  0  0  0  0  0  0
    7.7490   11.7190   24.5830 C   0  0  0  0  0  0  0  0  0  0  0  0
    6.9970   12.7800   25.1510 C   0  0  0  0  0  0  0  0  0  0  0  0
    6.0470   12.3240   25.9390 N   0  0  0  0  0  0  0  0  0  0  0  0
  2  1  2  0
  3  2  1  0
  4  2  1  6
  5  4  1  0
  6  5  1  0
  7  6  1  0
  8  4  1  0
  9  8  1  0
  9  7  1  0
 10  9  1  0
 11 10  2  0
 12 10  1  0
 13 12  1  0
 14 13  2  0
 15 14  1  0
 16 15  2  0
 17 16  1  0
 18 17  1  0
 19 18  1  0
 20 17  2  0
 20 13  1  0
 21 20  1  0
 22 21  2  0
 22 18  1  0
M  END
>  <id>  (47) 
207408

>  <inchikey>  (47) 
ZWLQWOFMLDHIDB-JTQLQIEISA-N

>  <alias>  (47) 
A4017a

>  <name>  (47) 
A4017a

>  <smiles>  (47) 
Cn1ncc2c(NC(=O)N3CCC[C@H](C(N)=O)C3)cccc21

>  <path>  (47) 
/opt/xchem-fragalysis-2/maxwin/2A_HIPPO/A71EV2A_P3only_20241211/aligned_files/A4017a/A4017a_hippo.pdb

>  <distance_score>  (47) 
None

>  <energy_score>  (47) 
None

>  <compound>  (47) 
ZWLQWOFMLDHIDB-UHFFFAOYSA-N

>  <compound_id>  (47) 
122484

>  <target>  (47) 
A71EV2A

$$$$
A71EV2A-x4018_A_201_v1
     RDKit          3D

 21 22  0  0  0  0  0  0  0  0999 V2000
    9.6880   16.8340   19.3560 O   0  0  0  0  0  0  0  0  0  0  0  0
   10.1010   15.7120   19.6590 C   0  0  0  0  0  0  0  0  0  0  0  0
   10.6160   14.8710   18.7770 N   0  0  0  0  0  0  0  0  0  0  0  0
   10.0480   15.2170   21.0960 C   0  0  1  0  0  0  0  0  0  0  0  0
   11.1580   15.8980   21.9020 C   0  0  0  0  0  0  0  0  0  0  0  0
   11.6180   15.0990   23.1040 C   0  0  0  0  0  0  0  0  0  0  0  0
   10.6820   15.1550   24.2910 C   0  0  0  0  0  0  0  0  0  0  0  0
    8.6340   15.4250   21.6570 C   0  0  0  0  0  0  0  0  0  0  0  0
    8.5020   15.6500   23.1640 C   0  0  0  0  0  0  0  0  0  0  0  0
    9.3080   14.7380   23.9910 N   0  0  0  0  0  0  0  0  0  0  0  0
    8.8230   13.6230   24.5730 C   0  0  0  0  0  0  0  0  0  0  0  0
    9.4050   13.0620   25.4940 O   0  0  0  0  0  0  0  0  0  0  0  0
    7.4860   13.1040   24.0870 C   0  0  0  0  0  0  0  0  0  0  0  0
    7.0080   12.0010   25.0000 C   0  0  0  0  0  0  0  0  0  0  0  0
    7.4200   10.6830   24.7890 C   0  0  0  0  0  0  0  0  0  0  0  0
    8.4140   10.5310   23.8610 O   0  0  0  0  0  0  0  0  0  0  0  0
    9.1890    9.3370   23.8880 C   0  0  0  0  0  0  0  0  0  0  0  0
    6.0720   12.2520   26.0000 C   0  0  0  0  0  0  0  0  0  0  0  0
    5.5230   11.2140   26.7310 C   0  0  0  0  0  0  0  0  0  0  0  0
    5.8890    9.9160   26.4650 C   0  0  0  0  0  0  0  0  0  0  0  0
    6.8420    9.6400   25.4960 C   0  0  0  0  0  0  0  0  0  0  0  0
  2  1  2  0
  3  2  1  0
  4  2  1  6
  5  4  1  0
  6  5  1  0
  7  6  1  0
  8  4  1  0
  9  8  1  0
 10  9  1  0
 10  7  1  0
 11 10  1  0
 12 11  2  0
 13 11  1  0
 14 13  1  0
 15 14  2  0
 16 15  1  0
 17 16  1  0
 18 14  1  0
 19 18  2  0
 20 19  1  0
 21 20  2  0
 21 15  1  0
M  END
>  <id>  (48) 
207409

>  <inchikey>  (48) 
KYIQVLMLIAPQNM-LBPRGKRZSA-N

>  <alias>  (48) 
A4018a

>  <name>  (48) 
A4018a

>  <smiles>  (48) 
COc1ccccc1CC(=O)N1CCC[C@H](C(N)=O)CC1

>  <path>  (48) 
/opt/xchem-fragalysis-2/maxwin/2A_HIPPO/A71EV2A_P3only_20241211/aligned_files/A4018a/A4018a_hippo.pdb

>  <distance_score>  (48) 
None

>  <energy_score>  (48) 
None

>  <compound>  (48) 
KYIQVLMLIAPQNM-UHFFFAOYSA-N

>  <compound_id>  (48) 
122485

>  <target>  (48) 
A71EV2A

$$$$
A71EV2A-x4020_A_201_v1
     RDKit          3D

 19 20  0  0  0  0  0  0  0  0999 V2000
    9.7000   16.9900   19.4230 O   0  0  0  0  0  0  0  0  0  0  0  0
   10.0660   15.8410   19.6840 C   0  0  0  0  0  0  0  0  0  0  0  0
   10.4210   14.9700   18.7470 N   0  0  0  0  0  0  0  0  0  0  0  0
   10.1180   15.3430   21.1160 C   0  0  1  0  0  0  0  0  0  0  0  0
   11.2650   16.0040   21.9070 C   0  0  0  0  0  0  0  0  0  0  0  0
   11.3020   15.5020   23.3510 C   0  0  0  0  0  0  0  0  0  0  0  0
    9.9630   15.7340   24.0140 C   0  0  0  0  0  0  0  0  0  0  0  0
    8.8020   15.6650   21.8260 C   0  0  0  0  0  0  0  0  0  0  0  0
    8.8720   15.1660   23.2010 N   0  0  0  0  0  0  0  0  0  0  0  0
    8.1180   14.1070   23.5550 C   0  0  0  0  0  0  0  0  0  0  0  0
    7.2940   13.6110   22.8020 O   0  0  0  0  0  0  0  0  0  0  0  0
    8.3770   13.5480   24.9420 C   0  0  0  0  0  0  0  0  0  0  0  0
    7.9280   12.1140   25.0190 C   0  0  0  0  0  0  0  0  0  0  0  0
    6.8480   11.7380   25.8070 C   0  0  0  0  0  0  0  0  0  0  0  0
    6.4180   10.4210   25.8160 C   0  0  0  0  0  0  0  0  0  0  0  0
    7.1000    9.4670   25.0670 C   0  0  0  0  0  0  0  0  0  0  0  0
    8.5880   11.1440   24.2700 C   0  0  0  0  0  0  0  0  0  0  0  0
    8.2010    9.8170   24.2950 C   0  0  0  0  0  0  0  0  0  0  0  0
    8.9950    8.7710   23.5490 C   0  0  0  0  0  0  0  0  0  0  0  0
  2  1  2  0
  3  2  1  0
  4  2  1  6
  5  4  1  0
  6  5  1  0
  7  6  1  0
  8  4  1  0
  9  8  1  0
  9  7  1  0
 10  9  1  0
 11 10  2  0
 12 10  1  0
 13 12  1  0
 14 13  2  0
 15 14  1  0
 16 15  2  0
 17 13  1  0
 18 16  1  0
 18 17  2  0
 19 18  1  0
M  END
>  <id>  (49) 
207410

>  <inchikey>  (49) 
MJMYLTAWMFARRM-ZDUSSCGKSA-N

>  <alias>  (49) 
A4020a

>  <name>  (49) 
A4020a

>  <smiles>  (49) 
Cc1cccc(CC(=O)N2CCC[C@H](C(N)=O)C2)c1

>  <path>  (49) 
/opt/xchem-fragalysis-2/maxwin/2A_HIPPO/A71EV2A_P3only_20241211/aligned_files/A4020a/A4020a_hippo.pdb

>  <distance_score>  (49) 
None

>  <energy_score>  (49) 
None

>  <compound>  (49) 
MJMYLTAWMFARRM-UHFFFAOYSA-N

>  <compound_id>  (49) 
122486

>  <target>  (49) 
A71EV2A

$$$$
A71EV2A-x4029_A_201_v1
     RDKit          3D

 19 20  0  0  0  0  0  0  0  0999 V2000
   10.8550   14.7130   25.3970 O   0  0  0  0  0  0  0  0  0  0  0  0
   10.7860   14.8840   24.1880 C   0  0  0  0  0  0  0  0  0  0  0  0
   11.9450   15.5020   23.4410 C   0  0  0  0  0  0  0  0  0  0  0  0
   11.8440   15.5880   21.9090 C   0  0  0  0  0  0  0  0  0  0  0  0
   10.3910   15.6450   21.4190 C   0  0  1  0  0  0  0  0  0  0  0  0
   10.2660   15.8230   19.9150 C   0  0  0  0  0  0  0  0  0  0  0  0
    9.7320   16.8270   19.4530 O   0  0  0  0  0  0  0  0  0  0  0  0
   10.7100   14.8320   19.1420 N   0  0  0  0  0  0  0  0  0  0  0  0
    9.6020   14.4840   22.0110 C   0  0  0  0  0  0  0  0  0  0  0  0
    9.6890   14.5320   23.4740 N   0  0  0  0  0  0  0  0  0  0  0  0
    8.4770   14.1100   24.1830 C   0  0  0  0  0  0  0  0  0  0  0  0
    8.3810   12.6080   24.3090 C   0  0  0  0  0  0  0  0  0  0  0  0
    7.4060   12.0120   25.1140 C   0  0  0  0  0  0  0  0  0  0  0  0
    6.6010   12.8870   25.8020 O   0  0  0  0  0  0  0  0  0  0  0  0
    5.5370   12.3420   26.5910 C   0  0  0  0  0  0  0  0  0  0  0  0
    9.2810   11.7740   23.6400 C   0  0  0  0  0  0  0  0  0  0  0  0
    9.2000   10.3990   23.7550 C   0  0  0  0  0  0  0  0  0  0  0  0
    8.2280    9.8310   24.5330 C   0  0  0  0  0  0  0  0  0  0  0  0
    7.3270   10.6280   25.2180 C   0  0  0  0  0  0  0  0  0  0  0  0
  2  1  2  0
  3  2  1  0
  4  3  1  0
  5  4  1  0
  5  6  1  6
  7  6  2  0
  8  6  1  0
  9  5  1  0
 10  9  1  0
 10  2  1  0
 11 10  1  0
 12 11  1  0
 13 12  2  0
 14 13  1  0
 15 14  1  0
 16 12  1  0
 17 16  2  0
 18 17  1  0
 19 18  2  0
 19 13  1  0
M  END
>  <id>  (50) 
207411

>  <inchikey>  (50) 
PBLXCFVVIRAUAX-LLVKDONJSA-N

>  <alias>  (50) 
A4029a

>  <name>  (50) 
A4029a

>  <smiles>  (50) 
COc1ccccc1CN1C[C@H](C(N)=O)CCC1=O

>  <path>  (50) 
/opt/xchem-fragalysis-2/maxwin/2A_HIPPO/A71EV2A_P3only_20241211/aligned_files/A4029a/A4029a.pdb

>  <distance_score>  (50) 
None

>  <energy_score>  (50) 
None

>  <compound>  (50) 
PBLXCFVVIRAUAX-UHFFFAOYSA-N

>  <compound_id>  (50) 
122454

>  <target>  (50) 
A71EV2A

$$$$
A71EV2A-x4031_A_201_v1
     RDKit          3D

 20 21  0  0  0  0  0  0  0  0999 V2000
    9.7440   16.7850   19.6570 O   0  0  0  0  0  0  0  0  0  0  0  0
   10.1850   15.6420   19.8550 C   0  0  0  0  0  0  0  0  0  0  0  0
   10.5840   14.8380   18.8660 N   0  0  0  0  0  0  0  0  0  0  0  0
   10.2320   15.0440   21.2500 C   0  0  1  0  0  0  0  0  0  0  0  0
   11.3350   15.6820   22.1200 C   0  0  0  0  0  0  0  0  0  0  0  0
   11.3820   15.0060   23.4910 C   0  0  0  0  0  0  0  0  0  0  0  0
   10.0130   15.0590   24.1750 C   0  0  0  0  0  0  0  0  0  0  0  0
    8.8800   15.1850   21.9540 C   0  0  0  0  0  0  0  0  0  0  0  0
    8.9360   14.5740   23.2880 N   0  0  0  0  0  0  0  0  0  0  0  0
    8.1130   13.5270   23.5920 C   0  0  0  0  0  0  0  0  0  0  0  0
    7.3550   13.0520   22.7560 O   0  0  0  0  0  0  0  0  0  0  0  0
    8.1780   13.0570   24.8740 N   0  0  0  0  0  0  0  0  0  0  0  0
    7.4150   11.9450   25.3160 C   0  0  0  0  0  0  0  0  0  0  0  0
    7.7040   10.6330   24.7890 C   0  0  0  0  0  0  0  0  0  0  0  0
    8.7280   10.5530   23.9200 O   0  0  0  0  0  0  0  0  0  0  0  0
    9.1170    9.2390   23.4690 C   0  0  0  0  0  0  0  0  0  0  0  0
    6.4030   12.0500   26.2760 C   0  0  0  0  0  0  0  0  0  0  0  0
    5.7270   10.9010   26.6630 C   0  0  0  0  0  0  0  0  0  0  0  0
    6.0620    9.7010   26.0720 C   0  0  0  0  0  0  0  0  0  0  0  0
    7.0540    9.5460   25.1670 N   0  0  0  0  0  0  0  0  0  0  0  0
  2  1  2  0
  3  2  1  0
  4  2  1  6
  5  4  1  0
  6  5  1  0
  7  6  1  0
  8  4  1  0
  9  8  1  0
  9  7  1  0
 10  9  1  0
 11 10  2  0
 12 10  1  0
 13 12  1  0
 14 13  2  0
 15 14  1  0
 16 15  1  0
 17 13  1  0
 18 17  2  0
 19 18  1  0
 20 19  2  0
 20 14  1  0
M  END
>  <id>  (51) 
207412

>  <inchikey>  (51) 
RJRRIOPTPBEHKH-VIFPVBQESA-N

>  <alias>  (51) 
A4031a

>  <name>  (51) 
A4031a

>  <smiles>  (51) 
COc1ncccc1NC(=O)N1CCC[C@H](C(N)=O)C1

>  <path>  (51) 
/opt/xchem-fragalysis-2/maxwin/2A_HIPPO/A71EV2A_P3only_20241211/aligned_files/A4031a/A4031a_hippo.pdb

>  <distance_score>  (51) 
None

>  <energy_score>  (51) 
None

>  <compound>  (51) 
RJRRIOPTPBEHKH-UHFFFAOYSA-N

>  <compound_id>  (51) 
122487

>  <target>  (51) 
A71EV2A

$$$$
A71EV2A-x4274_A_201_v1
     RDKit          3D

 18 19  0  0  0  0  0  0  0  0999 V2000
    9.7650   16.8100   19.8000 O   0  0  0  0  0  0  0  0  0  0  0  0
   10.1990   15.6680   20.0030 C   0  0  0  0  0  0  0  0  0  0  0  0
   10.5760   14.8640   19.0160 N   0  0  0  0  0  0  0  0  0  0  0  0
   10.2720   15.0940   21.4070 C   0  0  1  0  0  0  0  0  0  0  0  0
   11.1940   15.9180   22.3220 C   0  0  0  0  0  0  0  0  0  0  0  0
   11.2020   15.3140   23.7270 C   0  0  0  0  0  0  0  0  0  0  0  0
    9.7930   15.1690   24.2650 C   0  0  0  0  0  0  0  0  0  0  0  0
    8.8560   14.9950   21.9920 C   0  0  0  0  0  0  0  0  0  0  0  0
    8.8790   14.4420   23.3650 N   0  0  0  0  0  0  0  0  0  0  0  0
    9.1620   12.9940   23.3950 C   0  0  0  0  0  0  0  0  0  0  0  0
    8.1900   12.2200   24.2630 C   0  0  0  0  0  0  0  0  0  0  0  0
    8.1640   10.8280   24.2340 C   0  0  0  0  0  0  0  0  0  0  0  0
    9.0230   10.2690   23.3410 O   0  0  0  0  0  0  0  0  0  0  0  0
    9.0940    8.8230   23.2810 C   0  0  0  0  0  0  0  0  0  0  0  0
    7.3750   12.9120   25.0700 N   0  0  0  0  0  0  0  0  0  0  0  0
    6.5330   12.2370   25.8690 C   0  0  0  0  0  0  0  0  0  0  0  0
    6.4510   10.8650   25.8970 C   0  0  0  0  0  0  0  0  0  0  0  0
    7.2760   10.1370   25.0520 C   0  0  0  0  0  0  0  0  0  0  0  0
  2  1  2  0
  3  2  1  0
  4  2  1  6
  5  4  1  0
  6  5  1  0
  7  6  1  0
  8  4  1  0
  9  8  1  0
  9  7  1  0
 10  9  1  0
 11 10  1  0
 12 11  2  0
 13 12  1  0
 14 13  1  0
 15 11  1  0
 16 15  2  0
 17 16  1  0
 18 17  2  0
 18 12  1  0
M  END
>  <id>  (52) 
207413

>  <inchikey>  (52) 
NASHQEPHZGSRGM-JTQLQIEISA-N

>  <alias>  (52) 
A4274a

>  <name>  (52) 
A4274a

>  <smiles>  (52) 
COc1cccnc1CN1CCC[C@H](C(N)=O)C1

>  <path>  (52) 
/opt/xchem-fragalysis-2/maxwin/2A_HIPPO/A71EV2A_P3only_20241211/aligned_files/A4274a/A4274a_hippo.pdb

>  <distance_score>  (52) 
None

>  <energy_score>  (52) 
None

>  <compound>  (52) 
NASHQEPHZGSRGM-UHFFFAOYSA-N

>  <compound_id>  (52) 
122488

>  <target>  (52) 
A71EV2A

$$$$
A71EV2A-x4283_A_201_v1
     RDKit          3D

 20 21  0  0  0  0  0  0  0  0999 V2000
    9.7260   16.8420   19.5300 O   0  0  0  0  0  0  0  0  0  0  0  0
   10.1740   15.7170   19.7480 C   0  0  0  0  0  0  0  0  0  0  0  0
   10.6040   14.9170   18.7810 N   0  0  0  0  0  0  0  0  0  0  0  0
   10.2320   15.1520   21.1580 C   0  0  1  0  0  0  0  0  0  0  0  0
   11.3190   15.8430   22.0040 C   0  0  0  0  0  0  0  0  0  0  0  0
   11.3570   15.2530   23.4180 C   0  0  0  0  0  0  0  0  0  0  0  0
    9.9810   15.3270   24.0700 C   0  0  0  0  0  0  0  0  0  0  0  0
    8.8780   15.2880   21.8690 C   0  0  0  0  0  0  0  0  0  0  0  0
    8.9610   14.7060   23.2100 N   0  0  0  0  0  0  0  0  0  0  0  0
    8.1790   13.6540   23.5510 C   0  0  0  0  0  0  0  0  0  0  0  0
    7.3250   13.2120   22.8020 O   0  0  0  0  0  0  0  0  0  0  0  0
    8.4340   13.0380   24.9120 C   0  0  0  0  0  0  0  0  0  0  0  0
    7.5000   11.9120   25.2390 C   0  0  0  0  0  0  0  0  0  0  0  0
    7.7490   10.6140   24.7820 C   0  0  0  0  0  0  0  0  0  0  0  0
    8.8260   10.4830   23.9430 O   0  0  0  0  0  0  0  0  0  0  0  0
    9.1650    9.1710   23.4780 C   0  0  0  0  0  0  0  0  0  0  0  0
    6.4700   12.2060   26.0500 N   0  0  0  0  0  0  0  0  0  0  0  0
    5.6730   11.1960   26.4420 C   0  0  0  0  0  0  0  0  0  0  0  0
    5.8490    9.8870   26.0380 C   0  0  0  0  0  0  0  0  0  0  0  0
    6.9110    9.5850   25.1940 C   0  0  0  0  0  0  0  0  0  0  0  0
  2  1  2  0
  3  2  1  0
  4  2  1  6
  5  4  1  0
  6  5  1  0
  7  6  1  0
  8  4  1  0
  9  8  1  0
  9  7  1  0
 10  9  1  0
 11 10  2  0
 12 10  1  0
 13 12  1  0
 14 13  2  0
 15 14  1  0
 16 15  1  0
 17 13  1  0
 18 17  2  0
 19 18  1  0
 20 19  2  0
 20 14  1  0
M  END
>  <id>  (53) 
207414

>  <inchikey>  (53) 
VJNDTMIDSGNFJC-JTQLQIEISA-N

>  <alias>  (53) 
A4283a

>  <name>  (53) 
A4283a

>  <smiles>  (53) 
COc1cccnc1CC(=O)N1CCC[C@H](C(N)=O)C1

>  <path>  (53) 
/opt/xchem-fragalysis-2/maxwin/2A_HIPPO/A71EV2A_P3only_20241211/aligned_files/A4283a/A4283a_hippo.pdb

>  <distance_score>  (53) 
None

>  <energy_score>  (53) 
None

>  <compound>  (53) 
VJNDTMIDSGNFJC-UHFFFAOYSA-N

>  <compound_id>  (53) 
122489

>  <target>  (53) 
A71EV2A

$$$$
A71EV2A-x4290_A_201_v1
     RDKit          3D

 21 22  0  0  0  0  0  0  0  0999 V2000
    9.8110   17.0580   19.5230 O   0  0  0  0  0  0  0  0  0  0  0  0
   10.2100   15.9110   19.7470 C   0  0  0  0  0  0  0  0  0  0  0  0
   10.5340   15.0540   18.7940 N   0  0  0  0  0  0  0  0  0  0  0  0
   10.3540   15.3970   21.1670 C   0  0  1  0  0  0  0  0  0  0  0  0
   11.5490   16.0470   21.8880 C   0  0  0  0  0  0  0  0  0  0  0  0
   11.6870   15.5450   23.3290 C   0  0  0  0  0  0  0  0  0  0  0  0
   10.3740   15.6810   24.0800 C   0  0  0  0  0  0  0  0  0  0  0  0
    9.1020   15.6830   21.9900 C   0  0  0  0  0  0  0  0  0  0  0  0
    9.2930   15.0630   23.3000 N   0  0  0  0  0  0  0  0  0  0  0  0
    8.6580   13.9160   23.6030 C   0  0  0  0  0  0  0  0  0  0  0  0
    7.7170   13.4960   22.9460 O   0  0  0  0  0  0  0  0  0  0  0  0
    9.2100   13.1350   24.7760 C   0  0  0  0  0  0  0  0  0  0  0  0
    8.3620   11.9110   25.0120 C   0  0  0  0  0  0  0  0  0  0  0  0
    7.1730   11.9690   25.7550 C   0  0  0  0  0  0  0  0  0  0  0  0
    6.5700   13.5820   26.3880 S   0  0  0  0  0  0  0  0  0  0  0  0
    5.2300   13.9810   25.2620 C   0  0  0  0  0  0  0  0  0  0  0  0
    8.7470   10.6910   24.4580 C   0  0  0  0  0  0  0  0  0  0  0  0
    8.0010    9.5490   24.6660 C   0  0  0  0  0  0  0  0  0  0  0  0
    6.8560    9.6010   25.4370 C   0  0  0  0  0  0  0  0  0  0  0  0
    6.4440   10.8120   25.9640 C   0  0  0  0  0  0  0  0  0  0  0  0
    4.8190   10.8110   26.9290 Br  0  0  0  0  0  0  0  0  0  0  0  0
  2  1  2  0
  3  2  1  0
  4  2  1  6
  5  4  1  0
  6  5  1  0
  7  6  1  0
  8  4  1  0
  9  8  1  0
  9  7  1  0
 10  9  1  0
 11 10  2  0
 12 10  1  0
 13 12  1  0
 14 13  2  0
 15 14  1  0
 16 15  1  0
 17 13  1  0
 18 17  2  0
 19 18  1  0
 20 19  2  0
 20 14  1  0
 21 20  1  0
M  END
>  <id>  (54) 
207415

>  <inchikey>  (54) 
IQRUJMCPLXCOCF-NSHDSACASA-N

>  <alias>  (54) 
A4290a

>  <name>  (54) 
A4290a

>  <smiles>  (54) 
CSc1c(Br)cccc1CC(=O)N1CCC[C@H](C(N)=O)C1

>  <path>  (54) 
/opt/xchem-fragalysis-2/maxwin/2A_HIPPO/A71EV2A_P3only_20241211/aligned_files/A4290a/A4290a.pdb

>  <distance_score>  (54) 
None

>  <energy_score>  (54) 
None

>  <compound>  (54) 
IQRUJMCPLXCOCF-UHFFFAOYSA-N

>  <compound_id>  (54) 
122490

>  <target>  (54) 
A71EV2A

$$$$
A71EV2A-x4298_A_201_v1
     RDKit          3D

 20 21  0  0  0  0  0  0  0  0999 V2000
    9.7610   16.8500   19.4170 O   0  0  0  0  0  0  0  0  0  0  0  0
   10.1150   15.6960   19.6870 C   0  0  0  0  0  0  0  0  0  0  0  0
   10.5380   14.8320   18.7700 N   0  0  0  0  0  0  0  0  0  0  0  0
   10.0710   15.1780   21.1150 C   0  0  1  0  0  0  0  0  0  0  0  0
   11.2070   15.7540   21.9800 C   0  0  0  0  0  0  0  0  0  0  0  0
   11.1840   15.1340   23.3800 C   0  0  0  0  0  0  0  0  0  0  0  0
    9.8180   15.3350   24.0420 C   0  0  0  0  0  0  0  0  0  0  0  0
    8.7440   15.4870   21.8170 C   0  0  0  0  0  0  0  0  0  0  0  0
    8.7350   14.8810   23.1550 N   0  0  0  0  0  0  0  0  0  0  0  0
    7.9430   13.8000   23.4050 C   0  0  0  0  0  0  0  0  0  0  0  0
    7.2710   13.2880   22.5300 O   0  0  0  0  0  0  0  0  0  0  0  0
    7.8630   13.3920   24.7030 N   0  0  0  0  0  0  0  0  0  0  0  0
    7.3160   12.1910   25.1790 C   0  0  0  0  0  0  0  0  0  0  0  0
    6.3170   12.0830   26.1430 C   0  0  0  0  0  0  0  0  0  0  0  0
    5.8780   10.8110   26.4810 C   0  0  0  0  0  0  0  0  0  0  0  0
    6.4320    9.7030   25.8690 C   0  0  0  0  0  0  0  0  0  0  0  0
    7.8810   11.1350   24.5910 N   0  0  0  0  0  0  0  0  0  0  0  0
    7.4470    9.9290   24.9370 C   0  0  0  0  0  0  0  0  0  0  0  0
    7.9480    8.8400   24.3260 O   0  0  0  0  0  0  0  0  0  0  0  0
    9.1740    8.9780   23.5930 C   0  0  0  0  0  0  0  0  0  0  0  0
  2  1  2  0
  3  2  1  0
  4  2  1  6
  5  4  1  0
  6  5  1  0
  7  6  1  0
  8  4  1  0
  9  8  1  0
  9  7  1  0
 10  9  1  0
 11 10  2  0
 12 10  1  0
 13 12  1  0
 14 13  2  0
 15 14  1  0
 16 15  2  0
 17 13  1  0
 18 16  1  0
 18 17  2  0
 19 18  1  0
 20 19  1  0
M  END
>  <id>  (55) 
207416

>  <inchikey>  (55) 
YPPPQJNCBBACKM-VIFPVBQESA-N

>  <alias>  (55) 
A4298a

>  <name>  (55) 
A4298a

>  <smiles>  (55) 
COc1cccc(NC(=O)N2CCC[C@H](C(N)=O)C2)n1

>  <path>  (55) 
/opt/xchem-fragalysis-2/maxwin/2A_HIPPO/A71EV2A_P3only_20241211/aligned_files/A4298a/A4298a.pdb

>  <distance_score>  (55) 
None

>  <energy_score>  (55) 
None

>  <compound>  (55) 
YPPPQJNCBBACKM-UHFFFAOYSA-N

>  <compound_id>  (55) 
122491

>  <target>  (55) 
A71EV2A

$$$$
A71EV2A-x4305_A_201_v1
     RDKit          3D

 22 23  0  0  0  0  0  0  0  0999 V2000
    9.6670   16.6640   19.4770 O   0  0  0  0  0  0  0  0  0  0  0  0
   10.1720   15.5570   19.7110 C   0  0  0  0  0  0  0  0  0  0  0  0
   10.7570   14.8140   18.7770 N   0  0  0  0  0  0  0  0  0  0  0  0
   10.1310   14.9540   21.1030 C   0  0  1  0  0  0  0  0  0  0  0  0
   11.1740   15.5890   22.0440 C   0  0  0  0  0  0  0  0  0  0  0  0
   11.1420   14.9190   23.4200 C   0  0  0  0  0  0  0  0  0  0  0  0
    9.7380   14.9670   24.0080 C   0  0  0  0  0  0  0  0  0  0  0  0
    8.7520   15.0910   21.7510 C   0  0  0  0  0  0  0  0  0  0  0  0
    8.7570   14.4190   23.0560 N   0  0  0  0  0  0  0  0  0  0  0  0
    7.7640   13.5510   23.3870 C   0  0  0  0  0  0  0  0  0  0  0  0
    6.9740   13.1500   22.5480 O   0  0  0  0  0  0  0  0  0  0  0  0
    7.6680   13.2260   24.7090 N   0  0  0  0  0  0  0  0  0  0  0  0
    6.7330   12.3700   25.3460 C   0  0  0  0  0  0  0  0  0  0  0  0
    5.7620   12.8400   26.2290 C   0  0  0  0  0  0  0  0  0  0  0  0
    5.0230   11.9400   26.9810 C   0  0  0  0  0  0  0  0  0  0  0  0
    5.2330   10.5770   26.8490 C   0  0  0  0  0  0  0  0  0  0  0  0
    6.1780   10.0930   25.9560 C   0  0  0  0  0  0  0  0  0  0  0  0
    6.9140   10.9860   25.1980 C   0  0  0  0  0  0  0  0  0  0  0  0
    7.7910   10.6200   24.2040 O   0  0  0  0  0  0  0  0  0  0  0  0
    8.9590    9.8290   24.5320 C   0  0  0  0  0  0  0  0  0  0  0  0
    9.3190    8.9350   23.3890 C   0  0  0  0  0  0  0  0  0  0  0  0
   10.0510   10.7780   24.8810 C   0  0  0  0  0  0  0  0  0  0  0  0
  2  1  2  0
  3  2  1  0
  4  2  1  6
  5  4  1  0
  6  5  1  0
  7  6  1  0
  8  4  1  0
  9  8  1  0
  9  7  1  0
 10  9  1  0
 11 10  2  0
 12 10  1  0
 13 12  1  0
 14 13  2  0
 15 14  1  0
 16 15  2  0
 17 16  1  0
 18 17  2  0
 18 13  1  0
 19 18  1  0
 20 19  1  0
 20 21  1  0
 22 20  1  0
M  END
>  <id>  (56) 
207417

>  <inchikey>  (56) 
LHHFKNNKVNZWBU-LBPRGKRZSA-N

>  <alias>  (56) 
A4305a

>  <name>  (56) 
A4305a

>  <smiles>  (56) 
CC(C)Oc1ccccc1NC(=O)N1CCC[C@H](C(N)=O)C1

>  <path>  (56) 
/opt/xchem-fragalysis-2/maxwin/2A_HIPPO/A71EV2A_P3only_20241211/aligned_files/A4305a/A4305a.pdb

>  <distance_score>  (56) 
None

>  <energy_score>  (56) 
None

>  <compound>  (56) 
LHHFKNNKVNZWBU-UHFFFAOYSA-N

>  <compound_id>  (56) 
122492

>  <target>  (56) 
A71EV2A

$$$$
A71EV2A-x4312_A_201_v1
     RDKit          3D

 19 21  0  0  0  0  0  0  0  0999 V2000
   11.3690   15.4450   24.5130 O   0  0  0  0  0  0  0  0  0  0  0  0
   10.8310   15.2720   23.4260 C   0  0  0  0  0  0  0  0  0  0  0  0
   11.3520   15.6900   22.0750 C   0  0  0  0  0  0  0  0  0  0  0  0
    9.6150   14.7160   23.2500 N   0  0  0  0  0  0  0  0  0  0  0  0
    9.1890   14.6940   21.8480 C   0  0  0  0  0  0  0  0  0  0  0  0
   10.5300   14.8260   21.1170 C   0  0  1  0  0  0  0  0  0  0  0  0
   10.3820   15.4010   19.7180 C   0  0  0  0  0  0  0  0  0  0  0  0
    9.8200   16.4840   19.5280 O   0  0  0  0  0  0  0  0  0  0  0  0
   10.8060   14.6300   18.7320 N   0  0  0  0  0  0  0  0  0  0  0  0
    8.7490   14.2780   24.3460 C   0  0  0  0  0  0  0  0  0  0  0  0
    8.5160   12.7870   24.3970 C   0  0  0  0  0  0  0  0  0  0  0  0
    7.4870   12.2750   25.1910 C   0  0  0  0  0  0  0  0  0  0  0  0
    6.5590   13.0250   25.8790 O   0  0  0  0  0  0  0  0  0  0  0  0
    5.6530   12.0840   26.5330 C   0  0  0  0  0  0  0  0  0  0  0  0
    6.2220   10.6790   26.3450 C   0  0  0  0  0  0  0  0  0  0  0  0
    7.3170   10.9110   25.3380 C   0  0  0  0  0  0  0  0  0  0  0  0
    8.1460   10.0300   24.6510 C   0  0  0  0  0  0  0  0  0  0  0  0
    9.1570   10.5190   23.8420 C   0  0  0  0  0  0  0  0  0  0  0  0
    9.3430   11.8870   23.7240 C   0  0  0  0  0  0  0  0  0  0  0  0
  2  1  2  0
  3  2  1  0
  4  2  1  0
  5  4  1  0
  6  5  1  0
  6  3  1  0
  6  7  1  6
  8  7  2  0
  9  7  1  0
 10  4  1  0
 11 10  1  0
 12 11  2  0
 13 12  1  0
 14 13  1  0
 15 14  1  0
 16 15  1  0
 16 12  1  0
 17 16  2  0
 18 17  1  0
 19 18  2  0
 19 11  1  0
M  END
>  <id>  (57) 
207418

>  <inchikey>  (57) 
GEUCKEBNKVUUPC-NSHDSACASA-N

>  <alias>  (57) 
A4312a

>  <name>  (57) 
A4312a

>  <smiles>  (57) 
NC(=O)[C@H]1CC(=O)N(Cc2cccc3c2OCC3)C1

>  <path>  (57) 
/opt/xchem-fragalysis-2/maxwin/2A_HIPPO/A71EV2A_P3only_20241211/aligned_files/A4312a/A4312a.pdb

>  <distance_score>  (57) 
None

>  <energy_score>  (57) 
None

>  <compound>  (57) 
GEUCKEBNKVUUPC-UHFFFAOYSA-N

>  <compound_id>  (57) 
122493

>  <target>  (57) 
A71EV2A

$$$$
A71EV2A-x4315_A_201_v1
     RDKit          3D

 20 22  0  0  0  0  0  0  0  0999 V2000
   11.0730   14.7270   25.2170 O   0  0  0  0  0  0  0  0  0  0  0  0
   10.9730   14.8830   24.0070 C   0  0  0  0  0  0  0  0  0  0  0  0
   12.1470   15.3920   23.2110 C   0  0  0  0  0  0  0  0  0  0  0  0
   11.8500   15.8790   21.7860 C   0  0  0  0  0  0  0  0  0  0  0  0
    9.8110   14.6700   23.3430 N   0  0  0  0  0  0  0  0  0  0  0  0
    9.5350   14.9430   21.9260 C   0  0  0  0  0  0  0  0  0  0  0  0
   10.8260   14.9620   21.1010 C   0  0  1  0  0  0  0  0  0  0  0  0
   10.4600   15.4500   19.7070 C   0  0  0  0  0  0  0  0  0  0  0  0
    9.8310   16.5010   19.5390 O   0  0  0  0  0  0  0  0  0  0  0  0
   10.8160   14.6620   18.7100 N   0  0  0  0  0  0  0  0  0  0  0  0
    8.6280   14.2410   24.0890 C   0  0  0  0  0  0  0  0  0  0  0  0
    8.4560   12.7400   24.1740 C   0  0  0  0  0  0  0  0  0  0  0  0
    7.4560   12.2020   24.9810 C   0  0  0  0  0  0  0  0  0  0  0  0
    6.6000   12.8770   25.8220 O   0  0  0  0  0  0  0  0  0  0  0  0
    5.8570   11.8520   26.5020 C   0  0  0  0  0  0  0  0  0  0  0  0
    6.3610   10.5710   26.0910 O   0  0  0  0  0  0  0  0  0  0  0  0
    7.3520   10.8410   25.1690 C   0  0  0  0  0  0  0  0  0  0  0  0
    8.1920    9.9540   24.5220 C   0  0  0  0  0  0  0  0  0  0  0  0
    9.1680   10.4720   23.6810 C   0  0  0  0  0  0  0  0  0  0  0  0
    9.3080   11.8480   23.5210 C   0  0  0  0  0  0  0  0  0  0  0  0
  2  1  2  0
  3  2  1  0
  4  3  1  0
  5  2  1  0
  6  5  1  0
  7  6  1  0
  7  4  1  0
  7  8  1  6
  9  8  2  0
 10  8  1  0
 11  5  1  0
 12 11  1  0
 13 12  2  0
 14 13  1  0
 15 14  1  0
 16 15  1  0
 17 16  1  0
 17 13  1  0
 18 17  2  0
 19 18  1  0
 20 19  2  0
 20 12  1  0
M  END
>  <id>  (58) 
207419

>  <inchikey>  (58) 
UTPQMVYOLBXEQO-JTQLQIEISA-N

>  <alias>  (58) 
A4315a

>  <name>  (58) 
A4315a

>  <smiles>  (58) 
NC(=O)[C@H]1CCC(=O)N(Cc2cccc3c2OCO3)C1

>  <path>  (58) 
/opt/xchem-fragalysis-2/maxwin/2A_HIPPO/A71EV2A_P3only_20241211/aligned_files/A4315a/A4315a.pdb

>  <distance_score>  (58) 
None

>  <energy_score>  (58) 
None

>  <compound>  (58) 
UTPQMVYOLBXEQO-UHFFFAOYSA-N

>  <compound_id>  (58) 
122494

>  <target>  (58) 
A71EV2A

$$$$
A71EV2A-x4317_A_201_v1
     RDKit          3D

 21 23  0  0  0  0  0  0  0  0999 V2000
    9.8890   16.7130   19.5970 O   0  0  0  0  0  0  0  0  0  0  0  0
   10.3960   15.5980   19.7720 C   0  0  0  0  0  0  0  0  0  0  0  0
   10.7770   14.8210   18.7640 N   0  0  0  0  0  0  0  0  0  0  0  0
   10.5410   15.0040   21.1650 C   0  0  2  0  0  0  0  0  0  0  0  0
    9.1890   14.6990   21.8120 C   0  0  0  0  0  0  0  0  0  0  0  0
   11.2370   15.8810   22.2210 C   0  0  0  0  0  0  0  0  0  0  0  0
   10.8350   15.1490   23.5250 C   0  0  0  0  0  0  0  0  0  0  0  0
   11.1310   15.7430   24.8650 C   0  0  0  0  0  0  0  0  0  0  0  0
   11.8240   14.4790   24.4240 C   0  0  0  0  0  0  0  0  0  0  0  0
    9.5290   14.5300   23.2340 N   0  0  0  0  0  0  0  0  0  0  0  0
    8.7260   13.9740   24.1770 C   0  0  0  0  0  0  0  0  0  0  0  0
    9.0240   13.9140   25.3600 O   0  0  0  0  0  0  0  0  0  0  0  0
    7.4020   13.4110   23.7000 C   0  0  0  0  0  0  0  0  0  0  0  0
    6.9220   12.3200   24.6300 C   0  0  0  0  0  0  0  0  0  0  0  0
    7.3890   11.0160   24.4780 C   0  0  0  0  0  0  0  0  0  0  0  0
    8.3830   10.8660   23.5490 O   0  0  0  0  0  0  0  0  0  0  0  0
    8.9720    9.5650   23.4010 C   0  0  0  0  0  0  0  0  0  0  0  0
    5.9530   12.5620   25.5980 C   0  0  0  0  0  0  0  0  0  0  0  0
    5.4300   11.5270   26.3620 C   0  0  0  0  0  0  0  0  0  0  0  0
    5.8760   10.2370   26.1730 C   0  0  0  0  0  0  0  0  0  0  0  0
    6.8490    9.9720   25.2210 C   0  0  0  0  0  0  0  0  0  0  0  0
  2  1  2  0
  3  2  1  0
  4  2  1  6
  5  4  1  0
  6  4  1  0
  7  6  1  0
  8  7  1  0
  9  7  1  0
  9  8  1  0
 10  7  1  0
 10  5  1  0
 11 10  1  0
 12 11  2  0
 13 11  1  0
 14 13  1  0
 15 14  2  0
 16 15  1  0
 17 16  1  0
 18 14  1  0
 19 18  2  0
 20 19  1  0
 21 20  2  0
 21 15  1  0
M  END
>  <id>  (59) 
207420

>  <inchikey>  (59) 
APDQHJBCMAYJOC-LBPRGKRZSA-N

>  <alias>  (59) 
A4317a

>  <name>  (59) 
A4317a

>  <smiles>  (59) 
COc1ccccc1CC(=O)N1C[C@@H](C(N)=O)CC12CC2

>  <path>  (59) 
/opt/xchem-fragalysis-2/maxwin/2A_HIPPO/A71EV2A_P3only_20241211/aligned_files/A4317a/A4317a.pdb

>  <distance_score>  (59) 
None

>  <energy_score>  (59) 
None

>  <compound>  (59) 
APDQHJBCMAYJOC-UHFFFAOYSA-N

>  <compound_id>  (59) 
122495

>  <target>  (59) 
A71EV2A

$$$$
A71EV2A-x4386_A_201_v1
     RDKit          3D

 20 21  0  0  0  0  0  0  0  0999 V2000
    9.8900   16.9870   19.5400 O   0  0  0  0  0  0  0  0  0  0  0  0
   10.2540   15.8240   19.7340 C   0  0  0  0  0  0  0  0  0  0  0  0
   10.7780   15.0770   18.7800 N   0  0  0  0  0  0  0  0  0  0  0  0
   10.2430   15.2170   21.1280 C   0  0  1  0  0  0  0  0  0  0  0  0
   11.2940   15.9130   22.0120 C   0  0  0  0  0  0  0  0  0  0  0  0
   11.3520   15.3260   23.4200 C   0  0  0  0  0  0  0  0  0  0  0  0
    9.9820   15.3640   24.0600 C   0  0  0  0  0  0  0  0  0  0  0  0
    8.8860   15.2890   21.8410 C   0  0  0  0  0  0  0  0  0  0  0  0
    8.9690   14.7260   23.1990 N   0  0  0  0  0  0  0  0  0  0  0  0
    8.1380   13.7410   23.6170 C   0  0  0  0  0  0  0  0  0  0  0  0
    7.2810   13.2550   22.8860 O   0  0  0  0  0  0  0  0  0  0  0  0
    8.2920   13.2950   25.0620 C   0  0  0  0  0  0  0  0  0  0  0  0
    7.5110   12.0420   25.3950 C   0  0  0  0  0  0  0  0  0  0  0  0
    7.8450   10.7710   24.9030 C   0  0  0  0  0  0  0  0  0  0  0  0
    9.1900   10.6450   23.7680 S   0  0  0  0  0  0  0  0  0  0  0  0
    9.4090    8.8770   23.5690 C   0  0  0  0  0  0  0  0  0  0  0  0
    6.4370   12.1390   26.2780 C   0  0  0  0  0  0  0  0  0  0  0  0
    5.7180   11.0200   26.6560 C   0  0  0  0  0  0  0  0  0  0  0  0
    6.0610    9.7830   26.1720 C   0  0  0  0  0  0  0  0  0  0  0  0
    7.1290    9.6460   25.3090 C   0  0  0  0  0  0  0  0  0  0  0  0
  2  1  2  0
  3  2  1  0
  4  2  1  6
  5  4  1  0
  6  5  1  0
  7  6  1  0
  8  4  1  0
  9  8  1  0
  9  7  1  0
 10  9  1  0
 11 10  2  0
 12 10  1  0
 13 12  1  0
 14 13  2  0
 15 14  1  0
 16 15  1  0
 17 13  1  0
 18 17  2  0
 19 18  1  0
 20 19  2  0
 20 14  1  0
M  END
>  <id>  (60) 
207421

>  <inchikey>  (60) 
OEVXZKJZIWUQNR-LBPRGKRZSA-N

>  <alias>  (60) 
A4386a

>  <name>  (60) 
A4386a

>  <smiles>  (60) 
CSc1ccccc1CC(=O)N1CCC[C@H](C(N)=O)C1

>  <path>  (60) 
/opt/xchem-fragalysis-2/maxwin/2A_HIPPO/A71EV2A_P3only_20241211/aligned_files/A4386a/A4386a.pdb

>  <distance_score>  (60) 
None

>  <energy_score>  (60) 
None

>  <compound>  (60) 
OEVXZKJZIWUQNR-UHFFFAOYSA-N

>  <compound_id>  (60) 
122496

>  <target>  (60) 
A71EV2A

$$$$
