A71EV2A-x3066_A_301_1_A71EV2A-x0526+A+147+1
     RDKit          3D

 14 15  0  0  0  0  0  0  0  0999 V2000
   10.4280   14.3440   24.4700 O   0  0  0  0  0  0  0  0  0  0  0  0
   10.3360   13.5590   23.5270 C   0  0  0  0  0  0  0  0  0  0  0  0
   10.9190   13.7850   22.3570 N   0  0  0  0  0  0  0  0  0  0  0  0
   11.7390   14.9650   22.1240 C   0  0  0  0  0  0  0  0  0  0  0  0
    9.6170   12.2790   23.6740 C   0  0  0  0  0  0  0  0  0  0  0  0
    8.5310   11.9840   24.5780 C   0  0  0  0  0  0  0  0  0  0  0  0
    8.2650   10.6100   24.4540 C   0  0  0  0  0  0  0  0  0  0  0  0
    9.1310   10.0920   23.5120 N   0  0  0  0  0  0  0  0  0  0  0  0
    9.2310    8.6940   23.1140 C   0  0  0  0  0  0  0  0  0  0  0  0
    9.9230   11.1040   23.0490 C   0  0  0  0  0  0  0  0  0  0  0  0
    7.7660   12.7460   25.4660 C   0  0  0  0  0  0  0  0  0  0  0  0
    6.7680   12.1330   26.2030 C   0  0  0  0  0  0  0  0  0  0  0  0
    6.5260   10.7660   26.0740 C   0  0  0  0  0  0  0  0  0  0  0  0
    7.2720    9.9890   25.1980 C   0  0  0  0  0  0  0  0  0  0  0  0
  4  3  1  0
  3  2  1  0
  2  1  2  0
  5  2  1  0
  5 10  2  0
 10  8  1  0
  9  8  1  0
  8  7  1  0
  7 14  2  0
 14 13  1  0
 13 12  2  0
 12 11  1  0
 11  6  2  0
  6  5  1  0
  7  6  1  0
M  END
>  <id>  (1) 
107

>  <inchikey>  (1) 
OHXYWSIWHXTWCT-UHFFFAOYSA-N

>  <alias>  (1) 
A3066a

>  <name>  (1) 
A3066a

>  <smiles>  (1) 
CNC(=O)c1cn(C)c2ccccc12

>  <path>  (1) 
/opt/xchem-fragalysis-2/maxwin/2A_HIPPO/aligned_files/A3066a/A3066a.pdb

>  <distance_score>  (1) 
None

>  <energy_score>  (1) 
None

>  <compound>  (1) 
OHXYWSIWHXTWCT-UHFFFAOYSA-N

>  <compound_id>  (1) 
6

>  <target>  (1) 
A71EV2A

$$$$
A71EV2A-x2290_A_301_1_A71EV2A-x0526+A+147+1
     RDKit          3D

 14 15  0  0  0  0  0  0  0  0999 V2000
   10.4390   14.2830   24.3590 O   0  0  0  0  0  0  0  0  0  0  0  0
   10.3530   13.4180   23.5030 C   0  0  0  0  0  0  0  0  0  0  0  0
   10.9530   13.5040   22.3180 N   0  0  0  0  0  0  0  0  0  0  0  0
   11.8630   14.5950   22.0110 C   0  0  0  0  0  0  0  0  0  0  0  0
    9.5710   12.1540   23.7640 C   0  0  0  0  0  0  0  0  0  0  0  0
    8.4810   11.9310   24.6730 C   0  0  0  0  0  0  0  0  0  0  0  0
    8.2100   10.5600   24.5760 C   0  0  0  0  0  0  0  0  0  0  0  0
    9.0640   10.0660   23.6330 N   0  0  0  0  0  0  0  0  0  0  0  0
    9.0560    8.7520   22.9980 C   0  0  0  0  0  0  0  0  0  0  0  0
    9.9170   11.0280   23.1580 N   0  0  0  0  0  0  0  0  0  0  0  0
    7.7460   12.7030   25.5630 C   0  0  0  0  0  0  0  0  0  0  0  0
    6.7580   12.1050   26.3270 C   0  0  0  0  0  0  0  0  0  0  0  0
    6.5110   10.7440   26.2360 C   0  0  0  0  0  0  0  0  0  0  0  0
    7.2420    9.9450   25.3630 C   0  0  0  0  0  0  0  0  0  0  0  0
  4  3  1  0
  3  2  1  0
  2  1  2  0
  5  2  1  0
  5 10  2  0
 10  8  1  0
  9  8  1  0
  8  7  1  0
  7 14  2  0
 14 13  1  0
 13 12  2  0
 12 11  1  0
 11  6  2  0
  6  5  1  0
  7  6  1  0
M  END
>  <id>  (2) 
122

>  <inchikey>  (2) 
DXESIOGIYNKDQX-UHFFFAOYSA-N

>  <alias>  (2) 
A2290a

>  <name>  (2) 
A2290a

>  <smiles>  (2) 
CNC(=O)c1nn(C)c2ccccc12

>  <path>  (2) 
/opt/xchem-fragalysis-2/maxwin/2A_HIPPO/aligned_files/A2290a/A2290a.pdb

>  <distance_score>  (2) 
None

>  <energy_score>  (2) 
None

>  <compound>  (2) 
DXESIOGIYNKDQX-UHFFFAOYSA-N

>  <compound_id>  (2) 
97

>  <target>  (2) 
A71EV2A

$$$$
A71EV2A-x2293_A_201_1_A71EV2A-x0526+A+147+1
     RDKit          3D

 24 27  0  0  0  0  0  0  0  0999 V2000
    9.9400   14.5730   23.7040 O   0  0  0  0  0  0  0  0  0  0  0  0
   10.3640   13.5590   23.1580 C   0  0  0  0  0  0  0  0  0  0  0  0
    9.7400   12.2260   23.4520 C   0  0  0  0  0  0  0  0  0  0  0  0
   10.1470   11.1200   22.8450 N   0  0  0  0  0  0  0  0  0  0  0  0
    8.7410   11.9300   24.4260 C   0  0  0  0  0  0  0  0  0  0  0  0
    8.5400   10.5450   24.3370 C   0  0  0  0  0  0  0  0  0  0  0  0
    7.6030    9.8820   25.1160 C   0  0  0  0  0  0  0  0  0  0  0  0
    6.8690   10.6520   26.0160 C   0  0  0  0  0  0  0  0  0  0  0  0
    7.0690   12.0170   26.1170 C   0  0  0  0  0  0  0  0  0  0  0  0
    8.0090   12.6740   25.3440 C   0  0  0  0  0  0  0  0  0  0  0  0
    9.4210   10.0950   23.3980 N   0  0  0  0  0  0  0  0  0  0  0  0
    9.7400    8.7170   23.0470 C   0  0  0  0  0  0  0  0  0  0  0  0
   11.3970   13.5460   22.3190 N   0  0  0  0  0  0  0  0  0  0  0  0
   12.1120   14.7920   21.9850 C   0  0  0  0  0  0  0  0  0  0  0  0
   12.2380   14.9700   20.4590 C   0  0  1  0  0  0  0  0  0  0  0  0
   10.9260   14.8120   19.8240 N   0  0  0  0  0  0  0  0  0  0  0  0
    9.9550   15.8450   20.1590 C   0  0  0  0  0  0  0  0  0  0  0  0
   10.5240   17.2410   20.1140 C   0  0  0  0  0  0  0  0  0  0  0  0
   11.9140   17.4580   20.1430 C   0  0  0  0  0  0  0  0  0  0  0  0
   12.8820   16.2960   20.0730 C   0  0  0  0  0  0  0  0  0  0  0  0
    9.6610   18.3320   20.0140 C   0  0  0  0  0  0  0  0  0  0  0  0
   10.1550   19.6240   19.9480 C   0  0  0  0  0  0  0  0  0  0  0  0
   11.5160   19.8420   20.0000 C   0  0  0  0  0  0  0  0  0  0  0  0
   12.3930   18.7690   20.0980 C   0  0  0  0  0  0  0  0  0  0  0  0
 12 11  1  0
 11  4  1  0
  4  3  2  0
  3  2  1  0
  2  1  2  0
 13  2  1  0
 14 13  1  0
 15 14  1  1
 15 20  1  0
 20 19  1  0
 19 24  2  0
 24 23  1  0
 23 22  2  0
 22 21  1  0
 21 18  2  0
 19 18  1  0
 18 17  1  0
 17 16  1  0
 16 15  1  0
  5  3  1  0
  5 10  2  0
 10  9  1  0
  9  8  2  0
  8  7  1  0
  7  6  2  0
  6  5  1  0
 11  6  1  0
M  END
>  <id>  (3) 
123

>  <inchikey>  (3) 
FCRASUWOKLJVQY-HNNXBMFYSA-N

>  <alias>  (3) 
A2293a

>  <name>  (3) 
A2293a

>  <smiles>  (3) 
Cn1nc(C(=O)NC[C@@H]2Cc3ccccc3CN2)c2ccccc21

>  <path>  (3) 
/opt/xchem-fragalysis-2/maxwin/2A_HIPPO/aligned_files/A2293a/A2293a.pdb

>  <distance_score>  (3) 
None

>  <energy_score>  (3) 
None

>  <compound>  (3) 
FCRASUWOKLJVQY-UHFFFAOYSA-N

>  <compound_id>  (3) 
98

>  <target>  (3) 
A71EV2A

$$$$
A71EV2A-x2304_A_246_1_A71EV2A-x0526+A+147+1
     RDKit          3D

 18 20  0  0  0  0  0  0  0  0999 V2000
   10.5340   14.5800   23.8900 O   0  0  0  0  0  0  0  0  0  0  0  0
   10.5750   13.5840   23.1510 C   0  0  0  0  0  0  0  0  0  0  0  0
   11.1850   13.5790   21.9340 N   0  0  0  0  0  0  0  0  0  0  0  0
   11.7460   14.7070   21.3050 C   0  0  0  0  0  0  0  0  0  0  0  0
   12.1360   15.9270   21.8210 C   0  0  0  0  0  0  0  0  0  0  0  0
   12.5930   16.6450   20.7880 N   0  0  0  0  0  0  0  0  0  0  0  0
   12.5190   15.9590   19.6320 N   0  0  0  0  0  0  0  0  0  0  0  0
   11.9900   14.7740   19.9310 C   0  0  0  0  0  0  0  0  0  0  0  0
    9.9640   12.2700   23.5710 C   0  0  0  0  0  0  0  0  0  0  0  0
   10.2960   11.1360   22.9480 N   0  0  0  0  0  0  0  0  0  0  0  0
    8.9450   12.0360   24.5480 C   0  0  0  0  0  0  0  0  0  0  0  0
    8.6800   10.6590   24.4630 C   0  0  0  0  0  0  0  0  0  0  0  0
    9.5010   10.1600   23.4960 N   0  0  0  0  0  0  0  0  0  0  0  0
    9.6760    8.7710   23.1010 C   0  0  0  0  0  0  0  0  0  0  0  0
    7.7300   10.0430   25.2720 C   0  0  0  0  0  0  0  0  0  0  0  0
    7.0310   10.8400   26.1760 C   0  0  0  0  0  0  0  0  0  0  0  0
    7.2790   12.2020   26.2640 C   0  0  0  0  0  0  0  0  0  0  0  0
    8.2270   12.8130   25.4600 C   0  0  0  0  0  0  0  0  0  0  0  0
 14 13  1  0
 13 10  1  0
 10  9  2  0
  9  2  1  0
  2  1  2  0
  3  2  1  0
  4  3  1  0
  4  8  1  0
  8  7  2  0
  7  6  1  0
  6  5  1  0
  5  4  2  0
 11  9  1  0
 11 18  2  0
 18 17  1  0
 17 16  2  0
 16 15  1  0
 15 12  2  0
 12 11  1  0
 13 12  1  0
M  END
>  <id>  (4) 
124

>  <inchikey>  (4) 
JXKYXHWVMLLNCD-UHFFFAOYSA-N

>  <alias>  (4) 
A2304a

>  <name>  (4) 
A2304a

>  <smiles>  (4) 
Cn1nc(C(=O)Nc2cn[nH]c2)c2ccccc21

>  <path>  (4) 
/opt/xchem-fragalysis-2/maxwin/2A_HIPPO/aligned_files/A2304a/A2304a.pdb

>  <distance_score>  (4) 
None

>  <energy_score>  (4) 
None

>  <compound>  (4) 
JXKYXHWVMLLNCD-UHFFFAOYSA-N

>  <compound_id>  (4) 
99

>  <target>  (4) 
A71EV2A

$$$$
A71EV2A-x2339_A_246_1_A71EV2A-x0526+A+147+1
     RDKit          3D

 17 19  0  0  0  0  0  0  0  0999 V2000
    5.4620   12.1770   27.3270 F   0  0  0  0  0  0  0  0  0  0  0  0
    6.2550   11.5880   26.3910 C   0  0  0  0  0  0  0  0  0  0  0  0
    7.0810   12.4030   25.6510 C   0  0  0  0  0  0  0  0  0  0  0  0
    6.2050   10.2140   26.2570 C   0  0  0  0  0  0  0  0  0  0  0  0
    7.0440    9.6030   25.3350 C   0  0  0  0  0  0  0  0  0  0  0  0
    7.9070   10.3970   24.5920 C   0  0  0  0  0  0  0  0  0  0  0  0
    8.8620   10.0840   23.6670 N   0  0  0  0  0  0  0  0  0  0  0  0
    9.2780    8.7680   23.2120 C   0  0  0  0  0  0  0  0  0  0  0  0
    7.9310   11.7890   24.7330 C   0  0  0  0  0  0  0  0  0  0  0  0
    8.9400   12.2360   23.8180 C   0  0  0  0  0  0  0  0  0  0  0  0
    9.5000   11.2050   23.1870 N   0  0  0  0  0  0  0  0  0  0  0  0
    9.3710   13.6420   23.5160 C   0  0  0  0  0  0  0  0  0  0  0  0
    9.0690   14.5630   24.2690 O   0  0  0  0  0  0  0  0  0  0  0  0
   10.0810   13.8100   22.3940 N   0  0  0  0  0  0  0  0  0  0  0  0
   10.5820   15.1110   21.9530 C   0  0  0  0  0  0  0  0  0  0  0  0
   11.6010   15.1410   20.8900 C   0  0  0  0  0  0  0  0  0  0  0  0
   10.2190   15.5790   20.6020 C   0  0  0  0  0  0  0  0  0  0  0  0
  8  7  1  0
  7 11  1  0
 11 10  2  0
 12 10  1  0
 13 12  2  0
 14 12  1  0
 15 14  1  0
 15 17  1  0
 17 16  1  0
 16 15  1  0
 10  9  1  0
  9  3  1  0
  3  2  2  0
  2  1  1  0
  4  2  1  0
  5  4  2  0
  6  5  1  0
  9  6  2  0
  7  6  1  0
M  END
>  <id>  (5) 
125

>  <inchikey>  (5) 
LJCPETRSDJEEFS-UHFFFAOYSA-N

>  <alias>  (5) 
A2339a

>  <name>  (5) 
A2339a

>  <smiles>  (5) 
Cn1nc(C(=O)NC2CC2)c2cc(F)ccc21

>  <path>  (5) 
/opt/xchem-fragalysis-2/maxwin/2A_HIPPO/aligned_files/A2339a/A2339a.pdb

>  <distance_score>  (5) 
None

>  <energy_score>  (5) 
None

>  <compound>  (5) 
LJCPETRSDJEEFS-UHFFFAOYSA-N

>  <compound_id>  (5) 
100

>  <target>  (5) 
A71EV2A

$$$$
A71EV2A-x2351_A_246_1_A71EV2A-x0526+A+147+1
     RDKit          3D

 14 15  0  0  0  0  0  0  0  0999 V2000
    5.1730   13.3190   26.1530 F   0  0  0  0  0  0  0  0  0  0  0  0
    5.9990   12.5460   25.4040 C   0  0  0  0  0  0  0  0  0  0  0  0
    6.9450   13.1780   24.6270 C   0  0  0  0  0  0  0  0  0  0  0  0
    5.8590   11.1790   25.4850 C   0  0  0  0  0  0  0  0  0  0  0  0
    6.7260   10.3800   24.7600 C   0  0  0  0  0  0  0  0  0  0  0  0
    7.6930   10.9830   23.9710 C   0  0  0  0  0  0  0  0  0  0  0  0
    8.6550   10.4580   23.1600 N   0  0  0  0  0  0  0  0  0  0  0  0
    8.9010    9.0580   22.8560 C   0  0  0  0  0  0  0  0  0  0  0  0
    7.8120   12.3730   23.8930 C   0  0  0  0  0  0  0  0  0  0  0  0
    8.9100   12.5970   22.9920 C   0  0  0  0  0  0  0  0  0  0  0  0
    9.4090   11.4400   22.5550 N   0  0  0  0  0  0  0  0  0  0  0  0
    9.4830   13.9080   22.5880 C   0  0  0  0  0  0  0  0  0  0  0  0
    8.9640   14.9590   22.9910 O   0  0  0  0  0  0  0  0  0  0  0  0
   10.5680   13.8940   21.8210 N   0  0  0  0  0  0  0  0  0  0  0  0
  8  7  1  0
  7 11  1  0
 11 10  2  0
 12 10  1  0
 14 12  1  0
 13 12  2  0
 10  9  1  0
  9  3  1  0
  3  2  2  0
  2  1  1  0
  4  2  1  0
  5  4  2  0
  6  5  1  0
  9  6  2  0
  7  6  1  0
M  END
>  <id>  (6) 
126

>  <inchikey>  (6) 
GDGNASXSZYDGJM-UHFFFAOYSA-N

>  <alias>  (6) 
A2351a

>  <name>  (6) 
A2351a

>  <smiles>  (6) 
Cn1nc(C(N)=O)c2cc(F)ccc21

>  <path>  (6) 
/opt/xchem-fragalysis-2/maxwin/2A_HIPPO/aligned_files/A2351a/A2351a.pdb

>  <distance_score>  (6) 
None

>  <energy_score>  (6) 
None

>  <compound>  (6) 
GDGNASXSZYDGJM-UHFFFAOYSA-N

>  <compound_id>  (6) 
101

>  <target>  (6) 
A71EV2A

$$$$
A71EV2A-x2454_A_246_1_A71EV2A-x0526+A+147+1
     RDKit          3D

 14 14  0  0  0  0  0  0  0  0999 V2000
    5.1240   13.4990   26.7730 O   0  0  0  0  0  0  0  0  0  0  0  0
    5.9280   13.1980   25.8810 C   0  0  0  0  0  0  0  0  0  0  0  0
    6.1550   13.9830   24.8260 N   0  0  0  0  0  0  0  0  0  0  0  0
    6.6020   12.0080   25.8970 N   0  0  0  0  0  0  0  0  0  0  0  0
    7.5470   11.4870   24.9810 C   0  0  0  0  0  0  0  0  0  0  0  0
    7.4660   10.1390   24.6580 C   0  0  0  0  0  0  0  0  0  0  0  0
    8.3680    9.5870   23.7650 C   0  0  0  0  0  0  0  0  0  0  0  0
    9.3540   10.3680   23.1840 C   0  0  0  0  0  0  0  0  0  0  0  0
    8.5430   12.2740   24.4080 C   0  0  0  0  0  0  0  0  0  0  0  0
    9.4410   11.7180   23.5010 C   0  0  0  0  0  0  0  0  0  0  0  0
   10.4340   12.5350   22.9130 N   0  0  0  0  0  0  0  0  0  0  0  0
   11.0830   13.5850   23.4740 C   0  0  0  0  0  0  0  0  0  0  0  0
   11.0920   13.7920   24.6850 O   0  0  0  0  0  0  0  0  0  0  0  0
   11.7770   14.4970   22.5070 C   0  0  0  0  0  0  0  0  0  0  0  0
 14 12  1  0
 13 12  2  0
 12 11  1  0
 11 10  1  0
 10  8  1  0
  8  7  2  0
  7  6  1  0
  6  5  2  0
  5  4  1  0
  4  2  1  0
  3  2  1  0
  2  1  2  0
  9  5  1  0
 10  9  2  0
M  END
>  <id>  (7) 
128

>  <inchikey>  (7) 
GVNXANNAMKHSRF-UHFFFAOYSA-N

>  <alias>  (7) 
A2454a

>  <name>  (7) 
A2454a

>  <smiles>  (7) 
CC(=O)Nc1cccc(NC(N)=O)c1

>  <path>  (7) 
/opt/xchem-fragalysis-2/maxwin/2A_HIPPO/aligned_files/A2454a/A2454a.pdb

>  <distance_score>  (7) 
None

>  <energy_score>  (7) 
None

>  <compound>  (7) 
GVNXANNAMKHSRF-UHFFFAOYSA-N

>  <compound_id>  (7) 
70

>  <target>  (7) 
A71EV2A

$$$$
A71EV2A-x2513_A_301_1_A71EV2A-x0526+A+147+1
     RDKit          3D

 14 15  0  0  0  0  0  0  0  0999 V2000
   13.3560    9.6680   25.5350 O   0  0  0  0  0  0  0  0  0  0  0  0
   12.4090   10.3960   25.1680 C   0  0  0  0  0  0  0  0  0  0  0  0
   11.0310   10.2320   25.3180 N   0  0  0  0  0  0  0  0  0  0  0  0
   10.3070   11.2150   24.6600 C   0  0  0  0  0  0  0  0  0  0  0  0
    8.9350   11.4530   24.6280 C   0  0  0  0  0  0  0  0  0  0  0  0
    7.8490   10.3660   25.4330 Cl  0  0  0  0  0  0  0  0  0  0  0  0
    8.4270   12.5690   23.9850 C   0  0  0  0  0  0  0  0  0  0  0  0
    9.2930   13.4560   23.3620 C   0  0  0  0  0  0  0  0  0  0  0  0
   12.5280   11.6460   24.3380 C   0  0  0  0  0  0  0  0  0  0  0  0
   13.4940   12.2410   24.0960 O   0  0  0  0  0  0  0  0  0  0  0  0
   11.2020   12.0950   24.0320 C   0  0  0  0  0  0  0  0  0  0  0  0
   10.6690   13.2150   23.3580 C   0  0  0  0  0  0  0  0  0  0  0  0
   11.6040   13.9920   22.7170 O   0  0  0  0  0  0  0  0  0  0  0  0
   11.1450   14.9340   21.7440 C   0  0  0  0  0  0  0  0  0  0  0  0
 14 13  1  0
 13 12  1  0
 12  8  2  0
  8  7  1  0
  7  5  2  0
  6  5  1  0
  5  4  1  0
  4 11  2  0
 12 11  1  0
 11  9  1  0
 10  9  2  0
  9  2  1  0
  2  1  2  0
  3  2  1  0
  4  3  1  0
M  END
>  <id>  (8) 
130

>  <inchikey>  (8) 
DVVWQQZWRTXTMK-UHFFFAOYSA-N

>  <alias>  (8) 
A2513a

>  <name>  (8) 
A2513a

>  <smiles>  (8) 
COc1ccc(Cl)c2c1C(=O)C(=O)N2

>  <path>  (8) 
/opt/xchem-fragalysis-2/maxwin/2A_HIPPO/aligned_files/A2513a/A2513a.pdb

>  <distance_score>  (8) 
None

>  <energy_score>  (8) 
None

>  <compound>  (8) 
DVVWQQZWRTXTMK-UHFFFAOYSA-N

>  <compound_id>  (8) 
102

>  <target>  (8) 
A71EV2A

$$$$
A71EV2A-x2629_A_246_1_A71EV2A-x0526+A+147+1
     RDKit          3D

 18 19  0  0  0  0  0  0  0  0999 V2000
   10.3190   14.9140   22.9160 O   0  0  0  0  0  0  0  0  0  0  0  0
   10.7710   13.9230   22.3430 C   0  0  0  0  0  0  0  0  0  0  0  0
   10.4900   12.6300   22.7050 N   0  0  0  0  0  0  0  0  0  0  0  0
    9.6590   12.1920   23.7680 C   0  0  0  0  0  0  0  0  0  0  0  0
    9.1130   13.0320   24.7400 C   0  0  0  0  0  0  0  0  0  0  0  0
    8.2240   12.5180   25.6720 C   0  0  0  0  0  0  0  0  0  0  0  0
    7.8930   11.1740   25.6630 C   0  0  0  0  0  0  0  0  0  0  0  0
    8.4520   10.3170   24.7250 C   0  0  0  0  0  0  0  0  0  0  0  0
    9.3230   10.8260   23.7710 C   0  0  0  0  0  0  0  0  0  0  0  0
    9.8560   10.1110   22.7330 O   0  0  0  0  0  0  0  0  0  0  0  0
    9.8410    8.6850   22.8080 C   0  0  0  0  0  0  0  0  0  0  0  0
   11.6070   13.9940   21.2580 N   0  0  0  0  0  0  0  0  0  0  0  0
   12.1070   15.1650   20.6470 C   0  0  0  0  0  0  0  0  0  0  0  0
   12.5550   16.2260   21.4320 C   0  0  0  0  0  0  0  0  0  0  0  0
   13.1270   17.3250   20.9300 N   0  0  0  0  0  0  0  0  0  0  0  0
   13.2650   17.3960   19.6020 C   0  0  0  0  0  0  0  0  0  0  0  0
   12.8410   16.4060   18.7380 C   0  0  0  0  0  0  0  0  0  0  0  0
   12.2510   15.2720   19.2710 C   0  0  0  0  0  0  0  0  0  0  0  0
 11 10  1  0
 10  9  1  0
  9  8  1  0
  8  7  2  0
  7  6  1  0
  6  5  2  0
  5  4  1  0
  9  4  2  0
  4  3  1  0
  3  2  1  0
  2  1  2  0
 12  2  1  0
 13 12  1  0
 13 18  2  0
 18 17  1  0
 17 16  2  0
 16 15  1  0
 15 14  2  0
 14 13  1  0
M  END
>  <id>  (9) 
131

>  <inchikey>  (9) 
GXPNSFDRGMRUJM-UHFFFAOYSA-N

>  <alias>  (9) 
A2629a

>  <name>  (9) 
A2629a

>  <smiles>  (9) 
COc1ccccc1NC(=O)Nc1cccnc1

>  <path>  (9) 
/opt/xchem-fragalysis-2/maxwin/2A_HIPPO/aligned_files/A2629a/A2629a.pdb

>  <distance_score>  (9) 
None

>  <energy_score>  (9) 
None

>  <compound>  (9) 
GXPNSFDRGMRUJM-UHFFFAOYSA-N

>  <compound_id>  (9) 
103

>  <target>  (9) 
A71EV2A

$$$$
A71EV2A-x2846_A_301_1_A71EV2A-x0526+A+147+1
     RDKit          3D

 20 22  0  0  0  0  0  0  0  0999 V2000
    9.9090   14.1600   24.9960 O   0  0  0  0  0  0  0  0  0  0  0  0
   10.0300   13.3400   24.0850 C   0  0  0  0  0  0  0  0  0  0  0  0
    9.3220   12.0130   24.1460 C   0  0  0  0  0  0  0  0  0  0  0  0
    9.7380   10.9750   23.4170 N   0  0  0  0  0  0  0  0  0  0  0  0
    8.2190   11.6420   24.9830 C   0  0  0  0  0  0  0  0  0  0  0  0
    8.0190   10.2810   24.7200 C   0  0  0  0  0  0  0  0  0  0  0  0
    7.0630    9.5410   25.4000 C   0  0  0  0  0  0  0  0  0  0  0  0
    6.2900   10.1900   26.3540 C   0  0  0  0  0  0  0  0  0  0  0  0
    6.4700   11.5410   26.6160 C   0  0  0  0  0  0  0  0  0  0  0  0
    7.4250   12.2760   25.9340 C   0  0  0  0  0  0  0  0  0  0  0  0
    8.9310    9.9260   23.7710 N   0  0  0  0  0  0  0  0  0  0  0  0
    9.1060    8.6330   23.1370 C   0  0  0  0  0  0  0  0  0  0  0  0
   10.7860   13.5430   23.0070 N   0  0  0  0  0  0  0  0  0  0  0  0
   11.7250   14.6500   22.9210 C   0  0  0  0  0  0  0  0  0  0  0  0
   12.0200   15.0370   21.4880 C   0  0  0  0  0  0  0  0  0  0  0  0
   10.8700   15.7210   20.8210 C   0  0  0  0  0  0  0  0  0  0  0  0
   10.1580   16.7280   21.4470 N   0  0  0  0  0  0  0  0  0  0  0  0
    9.2740   17.0670   20.5840 C   0  0  0  0  0  0  0  0  0  0  0  0
    9.3190   16.3960   19.4130 O   0  0  0  0  0  0  0  0  0  0  0  0
   10.3610   15.5340   19.5960 C   0  0  0  0  0  0  0  0  0  0  0  0
 12 11  1  0
 11  4  1  0
  4  3  2  0
  3  2  1  0
  2  1  2  0
 13  2  1  0
 14 13  1  0
 15 14  1  0
 16 15  1  0
 16 20  2  0
 20 19  1  0
 19 18  1  0
 18 17  2  0
 17 16  1  0
  5  3  1  0
  5 10  2  0
 10  9  1  0
  9  8  2  0
  8  7  1  0
  7  6  2  0
  6  5  1  0
 11  6  1  0
M  END
>  <id>  (10) 
132

>  <inchikey>  (10) 
ONGQCMNCDUWDOR-UHFFFAOYSA-N

>  <alias>  (10) 
A2846a

>  <name>  (10) 
A2846a

>  <smiles>  (10) 
Cn1nc(C(=O)NCCc2cocn2)c2ccccc21

>  <path>  (10) 
/opt/xchem-fragalysis-2/maxwin/2A_HIPPO/aligned_files/A2846a/A2846a.pdb

>  <distance_score>  (10) 
None

>  <energy_score>  (10) 
None

>  <compound>  (10) 
ONGQCMNCDUWDOR-UHFFFAOYSA-N

>  <compound_id>  (10) 
104

>  <target>  (10) 
A71EV2A

$$$$
None
     RDKit          3D

 19 21  0  0  0  0  0  0  0  0999 V2000
   10.5760   14.1040   24.7610 O   0  0  0  0  0  0  0  0  0  0  0  0
   10.4920   13.2710   23.8610 C   0  0  0  0  0  0  0  0  0  0  0  0
    9.7140   11.9860   24.0760 C   0  0  0  0  0  0  0  0  0  0  0  0
   10.0270   10.8960   23.3830 N   0  0  0  0  0  0  0  0  0  0  0  0
    8.6330   11.7200   24.9940 C   0  0  0  0  0  0  0  0  0  0  0  0
    8.3290   10.3660   24.7890 C   0  0  0  0  0  0  0  0  0  0  0  0
    7.3330    9.7260   25.5130 C   0  0  0  0  0  0  0  0  0  0  0  0
    6.6340   10.4560   26.4630 C   0  0  0  0  0  0  0  0  0  0  0  0
    6.9200   11.7940   26.6770 C   0  0  0  0  0  0  0  0  0  0  0  0
    7.9130   12.4360   25.9490 C   0  0  0  0  0  0  0  0  0  0  0  0
    9.1950    9.9060   23.8420 N   0  0  0  0  0  0  0  0  0  0  0  0
    9.4030    8.5350   23.4020 C   0  0  0  0  0  0  0  0  0  0  0  0
   11.0800   13.4080   22.6670 N   0  0  0  0  0  0  0  0  0  0  0  0
   11.7200   14.6520   22.2720 C   0  0  0  0  0  0  0  0  0  0  0  0
   11.0930   15.2760   21.0650 C   0  0  0  0  0  0  0  0  0  0  0  0
   10.1180   16.2560   21.1930 N   0  0  0  0  0  0  0  0  0  0  0  0
    9.6910   16.4860   19.9580 C   0  0  0  0  0  0  0  0  0  0  0  0
   10.3490   15.7450   19.0570 N   0  0  0  0  0  0  0  0  0  0  0  0
   11.2480   14.9750   19.7470 C   0  0  0  0  0  0  0  0  0  0  0  0
 12 11  1  0
 11  4  1  0
  4  3  2  0
  3  2  1  0
  2  1  2  0
 13  2  1  0
 14 13  1  0
 15 14  1  0
 15 19  2  0
 19 18  1  0
 18 17  1  0
 17 16  2  0
 16 15  1  0
  5  3  1  0
  5 10  2  0
 10  9  1  0
  9  8  2  0
  8  7  1  0
  7  6  2  0
  6  5  1  0
 11  6  1  0
M  END
>  <id>  (11) 
133

>  <inchikey>  (11) 
FWZMGOFFERWMMX-UHFFFAOYSA-N

>  <alias>  (11) 
A2972a

>  <name>  (11) 
A2972a

>  <smiles>  (11) 
Cn1nc(C(=O)NCc2c[nH]cn2)c2ccccc21

>  <path>  (11) 
/opt/xchem-fragalysis-2/maxwin/2A_HIPPO/aligned_files/A2972a/A2972a.pdb

>  <distance_score>  (11) 
None

>  <energy_score>  (11) 
None

>  <compound>  (11) 
FWZMGOFFERWMMX-UHFFFAOYSA-N

>  <compound_id>  (11) 
105

>  <target>  (11) 
A71EV2A

$$$$
None
     RDKit          3D

 19 20  0  0  0  0  0  0  0  0999 V2000
    9.7760   17.0650   19.5510 O   0  0  0  0  0  0  0  0  0  0  0  0
   10.1000   15.8980   19.7950 C   0  0  0  0  0  0  0  0  0  0  0  0
   10.5100   15.0560   18.8610 N   0  0  0  0  0  0  0  0  0  0  0  0
   10.0690   15.3580   21.2130 C   0  0  1  0  0  0  0  0  0  0  0  0
   11.2870   15.8440   22.0160 C   0  0  0  0  0  0  0  0  0  0  0  0
   11.2130   15.4470   23.4950 C   0  0  0  0  0  0  0  0  0  0  0  0
    9.8820   15.8590   24.0990 C   0  0  0  0  0  0  0  0  0  0  0  0
    8.8100   15.8610   21.9210 C   0  0  0  0  0  0  0  0  0  0  0  0
    8.7740   15.3320   23.2870 N   0  0  0  0  0  0  0  0  0  0  0  0
    8.2820   14.0690   23.4590 C   0  0  0  0  0  0  0  0  0  0  0  0
    7.6100   13.5080   22.6010 O   0  0  0  0  0  0  0  0  0  0  0  0
    8.4860   13.5030   24.6740 N   0  0  0  0  0  0  0  0  0  0  0  0
    8.1270   12.1670   24.9390 C   0  0  0  0  0  0  0  0  0  0  0  0
    7.0990   11.7900   25.7890 C   0  0  0  0  0  0  0  0  0  0  0  0
    6.7400   10.4570   25.8680 C   0  0  0  0  0  0  0  0  0  0  0  0
    7.4120    9.5090   25.1100 C   0  0  0  0  0  0  0  0  0  0  0  0
    8.8160   11.2060   24.2060 C   0  0  0  0  0  0  0  0  0  0  0  0
    8.4660    9.8670   24.2800 C   0  0  0  0  0  0  0  0  0  0  0  0
    9.1910    8.8330   23.4520 C   0  0  0  0  0  0  0  0  0  0  0  0
 19 18  1  0
 18 16  2  0
 16 15  1  0
 15 14  2  0
 14 13  1  0
 13 12  1  0
 12 10  1  0
 11 10  2  0
 10  9  1  0
  9  7  1  0
  7  6  1  0
  6  5  1  0
  5  4  1  0
  4  2  1  6
  3  2  1  0
  2  1  2  0
  8  4  1  0
  9  8  1  0
 17 13  2  0
 18 17  1  0
M  END
>  <id>  (12) 
134

>  <inchikey>  (12) 
PUSSAGYROFRULS-NSHDSACASA-N

>  <alias>  (12) 
A3054a

>  <name>  (12) 
A3054a

>  <smiles>  (12) 
Cc1cccc(NC(=O)N2CCC[C@H](C(N)=O)C2)c1

>  <path>  (12) 
/opt/xchem-fragalysis-2/maxwin/2A_HIPPO/aligned_files/A3054a/A3054a.pdb

>  <distance_score>  (12) 
None

>  <energy_score>  (12) 
None

>  <compound>  (12) 
PUSSAGYROFRULS-UHFFFAOYSA-N

>  <compound_id>  (12) 
106

>  <target>  (12) 
A71EV2A

$$$$
None
     RDKit          3D

 20 22  0  0  0  0  0  0  0  0999 V2000
    5.8490   11.9250   27.0320 O   0  0  0  0  0  0  0  0  0  0  0  0
    6.1550   10.8460   26.5120 C   0  0  0  0  0  0  0  0  0  0  0  0
    7.2320   10.7570   25.4970 C   0  0  0  0  0  0  0  0  0  0  0  0
    8.0440   11.8380   24.9810 C   0  0  0  0  0  0  0  0  0  0  0  0
    8.1510   13.1970   25.2640 C   0  0  0  0  0  0  0  0  0  0  0  0
    9.0850   13.9710   24.5840 C   0  0  0  0  0  0  0  0  0  0  0  0
    9.9100   13.4050   23.6200 C   0  0  0  0  0  0  0  0  0  0  0  0
    9.8220   12.0530   23.3210 C   0  0  0  0  0  0  0  0  0  0  0  0
    8.8950   11.2800   24.0110 C   0  0  0  0  0  0  0  0  0  0  0  0
    8.6420    9.9230   23.9520 N   0  0  0  0  0  0  0  0  0  0  0  0
    9.3530    8.9610   23.1210 C   0  0  0  0  0  0  0  0  0  0  0  0
    7.6440    9.6250   24.8410 C   0  0  0  0  0  0  0  0  0  0  0  0
    5.5630    9.6940   26.8410 N   0  0  0  0  0  0  0  0  0  0  0  0
    4.5380    9.6480   27.8620 C   0  0  0  0  0  0  0  0  0  0  0  0
    5.0210    9.1290   29.1660 C   0  0  0  0  0  0  0  0  0  0  0  0
    4.5430    8.1960   30.0070 C   0  0  0  0  0  0  0  0  0  0  0  0
    6.1130    9.7250   29.6940 O   0  0  0  0  0  0  0  0  0  0  0  0
    6.3480    9.1680   30.9820 N   0  0  0  0  0  0  0  0  0  0  0  0
    5.3760    8.2340   31.1340 C   0  0  0  0  0  0  0  0  0  0  0  0
    5.2820    7.3980   32.3740 C   0  0  0  0  0  0  0  0  0  0  0  0
 20 19  1  0
 19 16  1  0
 16 15  2  0
 15 14  1  0
 14 13  1  0
 13  2  1  0
  2  1  2  0
  3  2  1  0
  3 12  2  0
 12 10  1  0
 11 10  1  0
 10  9  1  0
  9  8  1  0
  8  7  2  0
  7  6  1  0
  6  5  2  0
  5  4  1  0
  4  3  1  0
  9  4  2  0
 17 15  1  0
 18 17  1  0
 19 18  2  0
M  END
>  <id>  (13) 
135

>  <inchikey>  (13) 
RYIGIXMEYULONZ-UHFFFAOYSA-N

>  <alias>  (13) 
A3175a

>  <name>  (13) 
A3175a

>  <smiles>  (13) 
Cc1cc(CNC(=O)c2cn(C)c3ccccc23)on1

>  <path>  (13) 
/opt/xchem-fragalysis-2/maxwin/2A_HIPPO/aligned_files/A3175a/A3175a.pdb

>  <distance_score>  (13) 
None

>  <energy_score>  (13) 
None

>  <compound>  (13) 
RYIGIXMEYULONZ-UHFFFAOYSA-N

>  <compound_id>  (13) 
107

>  <target>  (13) 
A71EV2A

$$$$
None
     RDKit          3D

 18 19  0  0  0  0  0  0  0  0999 V2000
    8.7030   14.6620   24.3040 O   0  0  0  0  0  0  0  0  0  0  0  0
    9.2250   13.7120   23.7200 C   0  0  0  0  0  0  0  0  0  0  0  0
   10.2550   13.8560   22.8770 N   0  0  0  0  0  0  0  0  0  0  0  0
   11.0100   15.1080   22.8420 C   0  0  1  0  0  0  0  0  0  0  0  0
   12.1660   15.0680   23.8270 C   0  0  0  0  0  0  0  0  0  0  0  0
   11.5050   15.3580   21.3990 C   0  0  0  0  0  0  0  0  0  0  0  0
   10.3800   15.3870   20.5360 O   0  0  0  0  0  0  0  0  0  0  0  0
   10.7390   15.1710   19.1820 C   0  0  0  0  0  0  0  0  0  0  0  0
    8.7250   12.3060   23.9510 C   0  0  0  0  0  0  0  0  0  0  0  0
    7.6520   11.8950   24.8180 C   0  0  0  0  0  0  0  0  0  0  0  0
    7.6020   10.5000   24.6920 C   0  0  0  0  0  0  0  0  0  0  0  0
    8.5890   10.1490   23.8160 N   0  0  0  0  0  0  0  0  0  0  0  0
    8.9870    8.8100   23.4030 C   0  0  0  0  0  0  0  0  0  0  0  0
    9.2850   11.2510   23.3530 N   0  0  0  0  0  0  0  0  0  0  0  0
    6.7970   12.5220   25.7190 C   0  0  0  0  0  0  0  0  0  0  0  0
    5.9220   11.7540   26.4810 C   0  0  0  0  0  0  0  0  0  0  0  0
    5.8800   10.3740   26.3380 C   0  0  0  0  0  0  0  0  0  0  0  0
    6.7180    9.7300   25.4370 C   0  0  0  0  0  0  0  0  0  0  0  0
  8  7  1  0
  7  6  1  0
  6  4  1  0
  4  5  1  1
  4  3  1  0
  3  2  1  0
  2  1  2  0
  9  2  1  0
  9 14  2  0
 14 12  1  0
 13 12  1  0
 12 11  1  0
 11 18  2  0
 18 17  1  0
 17 16  2  0
 16 15  1  0
 15 10  2  0
 10  9  1  0
 11 10  1  0
M  END
>  <id>  (14) 
136

>  <inchikey>  (14) 
UFYNWTYMVOYUIH-VIFPVBQESA-N

>  <alias>  (14) 
A3176a

>  <name>  (14) 
A3176a

>  <smiles>  (14) 
COC[C@H](C)NC(=O)c1nn(C)c2ccccc12

>  <path>  (14) 
/opt/xchem-fragalysis-2/maxwin/2A_HIPPO/aligned_files/A3176a/A3176a.pdb

>  <distance_score>  (14) 
None

>  <energy_score>  (14) 
None

>  <compound>  (14) 
UFYNWTYMVOYUIH-UHFFFAOYSA-N

>  <compound_id>  (14) 
108

>  <target>  (14) 
A71EV2A

$$$$
None
     RDKit          3D

 18 20  0  0  0  0  0  0  0  0999 V2000
    8.9840   14.3780   24.7240 O   0  0  0  0  0  0  0  0  0  0  0  0
    9.4480   13.4940   24.0100 C   0  0  0  0  0  0  0  0  0  0  0  0
   10.4050   13.7380   23.0890 N   0  0  0  0  0  0  0  0  0  0  0  0
   11.0190   15.0600   22.9980 C   0  0  2  0  0  0  0  0  0  0  0  0
   10.5690   16.0120   21.9350 C   0  0  2  0  0  0  0  0  0  0  0  0
    9.4730   15.6280   20.9590 C   0  0  0  0  0  0  0  0  0  0  0  0
    8.1840   15.7060   21.5420 O   0  0  0  0  0  0  0  0  0  0  0  0
   11.9090   15.3520   21.8300 C   0  0  0  0  0  0  0  0  0  0  0  0
    8.9100   12.0830   24.1270 C   0  0  0  0  0  0  0  0  0  0  0  0
    9.4550   11.0480   23.4920 N   0  0  0  0  0  0  0  0  0  0  0  0
    7.8120   11.6520   24.9700 C   0  0  0  0  0  0  0  0  0  0  0  0
    7.7320   10.2690   24.7660 C   0  0  0  0  0  0  0  0  0  0  0  0
    8.7280    9.9390   23.8930 N   0  0  0  0  0  0  0  0  0  0  0  0
    9.0590    8.6200   23.3720 C   0  0  0  0  0  0  0  0  0  0  0  0
    6.8020    9.4840   25.4350 C   0  0  0  0  0  0  0  0  0  0  0  0
    5.9760   10.0930   26.3710 C   0  0  0  0  0  0  0  0  0  0  0  0
    6.0660   11.4640   26.6120 C   0  0  0  0  0  0  0  0  0  0  0  0
    6.9640   12.2490   25.9030 C   0  0  0  0  0  0  0  0  0  0  0  0
 14 13  1  0
 13 10  1  0
 10  9  2  0
  9  2  1  0
  2  1  2  0
  3  2  1  0
  4  3  1  6
  4  8  1  0
  8  5  1  0
  5  4  1  0
  5  6  1  6
  7  6  1  0
 11  9  1  0
 11 18  2  0
 18 17  1  0
 17 16  2  0
 16 15  1  0
 15 12  2  0
 12 11  1  0
 13 12  1  0
M  END
>  <id>  (15) 
137

>  <inchikey>  (15) 
KPYFSQUXIWVGBB-WPRPVWTQSA-N

>  <alias>  (15) 
A3177a

>  <name>  (15) 
A3177a

>  <smiles>  (15) 
Cn1nc(C(=O)N[C@H]2C[C@H]2CO)c2ccccc21

>  <path>  (15) 
/opt/xchem-fragalysis-2/maxwin/2A_HIPPO/aligned_files/A3177a/A3177a.pdb

>  <distance_score>  (15) 
None

>  <energy_score>  (15) 
None

>  <compound>  (15) 
KPYFSQUXIWVGBB-UHFFFAOYSA-N

>  <compound_id>  (15) 
109

>  <target>  (15) 
A71EV2A

$$$$
None
     RDKit          3D

 18 20  0  0  0  0  0  0  0  0999 V2000
    8.6530   14.8570   24.0090 O   0  0  0  0  0  0  0  0  0  0  0  0
    9.0700   13.8830   23.3510 C   0  0  0  0  0  0  0  0  0  0  0  0
    9.8220   14.0260   22.2590 N   0  0  0  0  0  0  0  0  0  0  0  0
   10.2200   15.3550   21.7920 C   0  0  2  0  0  0  0  0  0  0  0  0
    9.7570   15.7020   20.3740 C   0  0  0  0  0  0  0  0  0  0  0  0
   10.8940   15.3870   19.5240 O   0  0  0  0  0  0  0  0  0  0  0  0
   12.0540   15.3700   20.3500 C   0  0  0  0  0  0  0  0  0  0  0  0
   11.7000   15.5230   21.7840 C   0  0  0  0  0  0  0  0  0  0  0  0
    8.6700   12.4920   23.7180 C   0  0  0  0  0  0  0  0  0  0  0  0
    9.2580   11.4480   23.1250 N   0  0  0  0  0  0  0  0  0  0  0  0
    7.6470   12.0540   24.6290 C   0  0  0  0  0  0  0  0  0  0  0  0
    7.6640   10.6520   24.5360 C   0  0  0  0  0  0  0  0  0  0  0  0
    8.6250   10.3290   23.6230 N   0  0  0  0  0  0  0  0  0  0  0  0
    9.0840    9.0010   23.2350 C   0  0  0  0  0  0  0  0  0  0  0  0
    6.8110    9.8590   25.2940 C   0  0  0  0  0  0  0  0  0  0  0  0
    5.9110   10.4860   26.1520 C   0  0  0  0  0  0  0  0  0  0  0  0
    5.8660   11.8800   26.2360 C   0  0  0  0  0  0  0  0  0  0  0  0
    6.7330   12.6670   25.4900 C   0  0  0  0  0  0  0  0  0  0  0  0
 14 13  1  0
 13 10  1  0
 10  9  2  0
  9  2  1  0
  2  1  2  0
  3  2  1  0
  4  3  1  6
  4  8  1  0
  8  7  1  0
  7  6  1  0
  6  5  1  0
  5  4  1  0
 11  9  1  0
 11 18  2  0
 18 17  1  0
 17 16  2  0
 16 15  1  0
 15 12  2  0
 12 11  1  0
 13 12  1  0
M  END
>  <id>  (16) 
138

>  <inchikey>  (16) 
OUXJTKZWAHXWFL-VIFPVBQESA-N

>  <alias>  (16) 
A3178a

>  <name>  (16) 
A3178a

>  <smiles>  (16) 
Cn1nc(C(=O)N[C@H]2CCOC2)c2ccccc21

>  <path>  (16) 
/opt/xchem-fragalysis-2/maxwin/2A_HIPPO/aligned_files/A3178a/A3178a.pdb

>  <distance_score>  (16) 
None

>  <energy_score>  (16) 
None

>  <compound>  (16) 
OUXJTKZWAHXWFL-UHFFFAOYSA-N

>  <compound_id>  (16) 
110

>  <target>  (16) 
A71EV2A

$$$$
None
     RDKit          3D

 20 22  0  0  0  0  0  0  0  0999 V2000
    9.6840   14.3400   24.9560 O   0  0  0  0  0  0  0  0  0  0  0  0
    9.8560   13.4780   24.0930 C   0  0  0  0  0  0  0  0  0  0  0  0
    9.1400   12.1620   24.1800 C   0  0  0  0  0  0  0  0  0  0  0  0
    9.6050   11.1460   23.4560 N   0  0  0  0  0  0  0  0  0  0  0  0
    8.0600   11.7370   25.0270 C   0  0  0  0  0  0  0  0  0  0  0  0
    7.9170   10.3680   24.7660 C   0  0  0  0  0  0  0  0  0  0  0  0
    6.9700    9.5890   25.4240 C   0  0  0  0  0  0  0  0  0  0  0  0
    6.1740   10.2060   26.3810 C   0  0  0  0  0  0  0  0  0  0  0  0
    6.3180   11.5670   26.6620 C   0  0  0  0  0  0  0  0  0  0  0  0
    7.2340   12.3460   25.9740 C   0  0  0  0  0  0  0  0  0  0  0  0
    8.8550   10.0490   23.8340 N   0  0  0  0  0  0  0  0  0  0  0  0
    9.1350    8.7510   23.2370 C   0  0  0  0  0  0  0  0  0  0  0  0
   10.6830   13.6040   23.0530 N   0  0  0  0  0  0  0  0  0  0  0  0
   11.6880   14.6620   22.9860 C   0  0  0  0  0  0  0  0  0  0  0  0
   12.0010   15.0370   21.5560 C   0  0  0  0  0  0  0  0  0  0  0  0
   10.8880   15.7090   20.8920 N   0  0  0  0  0  0  0  0  0  0  0  0
   10.2860   16.7900   21.4520 N   0  0  0  0  0  0  0  0  0  0  0  0
    9.3960   17.1150   20.5390 C   0  0  0  0  0  0  0  0  0  0  0  0
    9.3920   16.3360   19.4330 N   0  0  0  0  0  0  0  0  0  0  0  0
   10.3400   15.4660   19.7030 C   0  0  0  0  0  0  0  0  0  0  0  0
 12 11  1  0
 11  4  1  0
  4  3  2  0
  3  2  1  0
  2  1  2  0
 13  2  1  0
 14 13  1  0
 15 14  1  0
 16 15  1  0
 16 20  1  0
 20 19  2  0
 19 18  1  0
 18 17  2  0
 17 16  1  0
  5  3  1  0
  5 10  2  0
 10  9  1  0
  9  8  2  0
  8  7  1  0
  7  6  2  0
  6  5  1  0
 11  6  1  0
M  END
>  <id>  (17) 
139

>  <inchikey>  (17) 
UIOOLKZMABSWFR-UHFFFAOYSA-N

>  <alias>  (17) 
A3181a

>  <name>  (17) 
A3181a

>  <smiles>  (17) 
Cn1nc(C(=O)NCCn2cncn2)c2ccccc21

>  <path>  (17) 
/opt/xchem-fragalysis-2/maxwin/2A_HIPPO/aligned_files/A3181a/A3181a.pdb

>  <distance_score>  (17) 
None

>  <energy_score>  (17) 
None

>  <compound>  (17) 
UIOOLKZMABSWFR-UHFFFAOYSA-N

>  <compound_id>  (17) 
111

>  <target>  (17) 
A71EV2A

$$$$
A71EV2A-x3371_A_201_1_A71EV2A-x0526+A+147+1__LIG
     RDKit          3D

 21 23  0  0  0  0  0  0  0  0999 V2000
    8.8880   14.5550   24.0800 O   0  0  0  0  0  0  0  0  0  0  0  0
    9.2830   13.5810   23.4470 C   0  0  0  0  0  0  0  0  0  0  0  0
    8.8640   12.1570   23.8430 C   0  0  0  0  0  0  0  0  0  0  0  0
    7.8560   11.7130   24.7830 C   0  0  0  0  0  0  0  0  0  0  0  0
    6.9640   12.3120   25.6650 C   0  0  0  0  0  0  0  0  0  0  0  0
    6.0370   11.5270   26.3420 C   0  0  0  0  0  0  0  0  0  0  0  0
    6.0000   10.1510   26.1570 C   0  0  0  0  0  0  0  0  0  0  0  0
    6.8980    9.5350   25.3000 C   0  0  0  0  0  0  0  0  0  0  0  0
    7.8160   10.3250   24.6210 C   0  0  0  0  0  0  0  0  0  0  0  0
    8.7360   10.0080   23.6730 N   0  0  0  0  0  0  0  0  0  0  0  0
    9.0250    8.6950   23.1160 C   0  0  0  0  0  0  0  0  0  0  0  0
    9.3930   11.1200   23.1970 N   0  0  0  0  0  0  0  0  0  0  0  0
   10.0510   13.6810   22.3590 N   0  0  0  0  0  0  0  0  0  0  0  0
   10.4380   14.9570   21.7660 C   0  0  0  0  0  0  0  0  0  0  0  0
   11.9410   15.1340   21.7330 C   0  0  0  0  0  0  0  0  0  0  0  0
   12.3880   16.3320   20.9500 C   0  0  0  0  0  0  0  0  0  0  0  0
   12.2400   16.3870   19.5800 N   0  0  0  0  0  0  0  0  0  0  0  0
   12.7060   17.5620   19.2280 C   0  0  0  0  0  0  0  0  0  0  0  0
   12.9600   17.4890   21.3830 C   0  0  0  0  0  0  0  0  0  0  0  0
   13.1540   18.2630   20.2760 N   0  0  0  0  0  0  0  0  0  0  0  0
   13.7240   19.6070   20.2450 C   0  0  0  0  0  0  0  0  0  0  0  0
  2  1  2  0
  3  2  1  0
  4  3  1  0
  5  4  2  0
  6  5  1  0
  7  6  2  0
  8  7  1  0
  9  8  2  0
  9  4  1  0
 10  9  1  0
 11 10  1  0
 12 10  1  0
 12  3  2  0
 13  2  1  0
 14 13  1  0
 15 14  1  0
 16 15  1  0
 17 16  1  0
 18 17  2  0
 19 16  2  0
 20 19  1  0
 20 18  1  0
 21 20  1  0
M  END
>  <id>  (18) 
207346

>  <inchikey>  (18) 
NQHLIPQTOQIZAL-UHFFFAOYSA-N

>  <alias>  (18) 
A3371a

>  <name>  (18) 
A3371a

>  <smiles>  (18) 
Cn1cnc(CCNC(=O)c2nn(C)c3ccccc23)c1

>  <path>  (18) 
/opt/xchem-fragalysis-2/maxwin/2A_HIPPO/A71EV2A_P3only_20241209/aligned_files/A3371a/A3371a.pdb

>  <distance_score>  (18) 
None

>  <energy_score>  (18) 
None

>  <compound>  (18) 
NQHLIPQTOQIZAL-UHFFFAOYSA-N

>  <compound_id>  (18) 
122391

>  <target>  (18) 
A71EV2A

$$$$
A71EV2A-x3379_A_201_1_A71EV2A-x0526+A+147+1__LIG
     RDKit          3D

 21 23  0  0  0  0  0  0  0  0999 V2000
    8.9700   14.3490   24.9180 O   0  0  0  0  0  0  0  0  0  0  0  0
    9.2830   13.4840   24.0910 C   0  0  0  0  0  0  0  0  0  0  0  0
    8.7430   12.1090   24.2100 C   0  0  0  0  0  0  0  0  0  0  0  0
    7.7110   11.6220   25.0820 C   0  0  0  0  0  0  0  0  0  0  0  0
    6.8530   12.1770   26.0360 C   0  0  0  0  0  0  0  0  0  0  0  0
    5.9640   11.3520   26.7110 C   0  0  0  0  0  0  0  0  0  0  0  0
    5.9170    9.9860   26.4480 C   0  0  0  0  0  0  0  0  0  0  0  0
    6.7510    9.4230   25.4890 C   0  0  0  0  0  0  0  0  0  0  0  0
    7.6370   10.2510   24.8150 C   0  0  0  0  0  0  0  0  0  0  0  0
    8.5610    9.9860   23.8500 N   0  0  0  0  0  0  0  0  0  0  0  0
    9.0020    8.6900   23.3600 C   0  0  0  0  0  0  0  0  0  0  0  0
    9.2210   11.1250   23.4440 N   0  0  0  0  0  0  0  0  0  0  0  0
   10.1470   13.7040   23.0910 N   0  0  0  0  0  0  0  0  0  0  0  0
   11.1980   14.7040   23.2880 C   0  0  1  0  0  0  0  0  0  0  0  0
   12.2830   14.1770   24.2090 C   0  0  0  0  0  0  0  0  0  0  0  0
   11.7400   14.9930   21.8950 C   0  0  0  0  0  0  0  0  0  0  0  0
   10.7600   15.6850   21.0100 C   0  0  0  0  0  0  0  0  0  0  0  0
   10.0500   16.7970   21.4620 N   0  0  0  0  0  0  0  0  0  0  0  0
    9.3090   17.1180   20.4660 C   0  0  0  0  0  0  0  0  0  0  0  0
    9.4560   16.3460   19.3650 O   0  0  0  0  0  0  0  0  0  0  0  0
   10.3750   15.4130   19.7540 C   0  0  0  0  0  0  0  0  0  0  0  0
  2  1  2  0
  3  2  1  0
  4  3  1  0
  5  4  2  0
  6  5  1  0
  7  6  2  0
  8  7  1  0
  9  8  2  0
  9  4  1  0
 10  9  1  0
 11 10  1  0
 12 10  1  0
 12  3  2  0
 13  2  1  0
 14 13  1  0
 14 15  1  1
 16 14  1  0
 17 16  1  0
 18 17  1  0
 19 18  2  0
 20 19  1  0
 21 20  1  0
 21 17  2  0
M  END
>  <id>  (19) 
207347

>  <inchikey>  (19) 
LQNOWDAJBFJAFM-JTQLQIEISA-N

>  <alias>  (19) 
A3379a

>  <name>  (19) 
A3379a

>  <smiles>  (19) 
C[C@@H](Cc1cocn1)NC(=O)c1nn(C)c2ccccc12

>  <path>  (19) 
/opt/xchem-fragalysis-2/maxwin/2A_HIPPO/A71EV2A_P3only_20241209/aligned_files/A3379a/A3379a.pdb

>  <distance_score>  (19) 
None

>  <energy_score>  (19) 
None

>  <compound>  (19) 
LQNOWDAJBFJAFM-UHFFFAOYSA-N

>  <compound_id>  (19) 
122392

>  <target>  (19) 
A71EV2A

$$$$
A71EV2A-x3392_A_201_1_A71EV2A-x0526+A+147+1__LIG
     RDKit          3D

 19 21  0  0  0  0  0  0  0  0999 V2000
    9.7930   13.5800   25.3690 O   0  0  0  0  0  0  0  0  0  0  0  0
    9.7060   12.9560   24.3270 C   0  0  0  0  0  0  0  0  0  0  0  0
    8.8720   11.8230   24.2280 N   0  0  0  0  0  0  0  0  0  0  0  0
    7.8260   11.5100   25.1060 C   0  0  0  0  0  0  0  0  0  0  0  0
    7.0150   12.3640   25.8440 C   0  0  0  0  0  0  0  0  0  0  0  0
    6.0250   11.8150   26.6480 C   0  0  0  0  0  0  0  0  0  0  0  0
    5.8450   10.4460   26.7070 C   0  0  0  0  0  0  0  0  0  0  0  0
    6.6550    9.6020   25.9660 C   0  0  0  0  0  0  0  0  0  0  0  0
    7.6570   10.1310   25.1660 C   0  0  0  0  0  0  0  0  0  0  0  0
    8.6720    9.4470   24.2940 C   0  0  0  0  0  0  0  0  0  0  0  0
    9.3540   10.6020   23.5590 C   0  0  0  0  0  0  0  0  0  0  0  0
   10.3900   13.2420   23.2140 N   0  0  0  0  0  0  0  0  0  0  0  0
   11.1910   14.4560   23.1200 C   0  0  0  0  0  0  0  0  0  0  0  0
   11.7000   14.6870   21.7140 C   0  0  0  0  0  0  0  0  0  0  0  0
   10.6320   15.3750   20.9280 C   0  0  0  0  0  0  0  0  0  0  0  0
    9.9340   16.4560   21.4420 N   0  0  0  0  0  0  0  0  0  0  0  0
    9.1330   16.7840   20.4980 C   0  0  0  0  0  0  0  0  0  0  0  0
    9.2140   16.0320   19.3820 O   0  0  0  0  0  0  0  0  0  0  0  0
   10.1890   15.1290   19.6890 C   0  0  0  0  0  0  0  0  0  0  0  0
  2  1  2  0
  3  2  1  0
  4  3  1  0
  5  4  2  0
  6  5  1  0
  7  6  2  0
  8  7  1  0
  9  8  2  0
  9  4  1  0
 10  9  1  0
 11 10  1  0
 11  3  1  0
 12  2  1  0
 13 12  1  0
 14 13  1  0
 15 14  1  0
 16 15  1  0
 17 16  2  0
 18 17  1  0
 19 18  1  0
 19 15  2  0
M  END
>  <id>  (20) 
207348

>  <inchikey>  (20) 
CFBYKVAFAXYDRK-UHFFFAOYSA-N

>  <alias>  (20) 
A3392a

>  <name>  (20) 
A3392a

>  <smiles>  (20) 
O=C(NCCc1cocn1)N1CCc2ccccc21

>  <path>  (20) 
/opt/xchem-fragalysis-2/maxwin/2A_HIPPO/A71EV2A_P3only_20241209/aligned_files/A3392a/A3392a.pdb

>  <distance_score>  (20) 
None

>  <energy_score>  (20) 
None

>  <compound>  (20) 
CFBYKVAFAXYDRK-UHFFFAOYSA-N

>  <compound_id>  (20) 
122393

>  <target>  (20) 
A71EV2A

$$$$
A71EV2A-x3403_A_201_1_A71EV2A-x0526+A+147+1__LIG
     RDKit          3D

 19 21  0  0  0  0  0  0  0  0999 V2000
   10.6800   14.9330   24.1660 O   0  0  0  0  0  0  0  0  0  0  0  0
   10.5440   14.3180   23.1200 C   0  0  0  0  0  0  0  0  0  0  0  0
   11.3930   14.6340   21.9110 C   0  0  0  0  0  0  0  0  0  0  0  0
   10.5710   15.4240   20.9370 C   0  0  0  0  0  0  0  0  0  0  0  0
    9.9460   16.5830   21.3650 N   0  0  0  0  0  0  0  0  0  0  0  0
    9.3070   16.9880   20.3350 C   0  0  0  0  0  0  0  0  0  0  0  0
    9.4390   16.2230   19.2310 O   0  0  0  0  0  0  0  0  0  0  0  0
   10.2640   15.2210   19.6510 C   0  0  0  0  0  0  0  0  0  0  0  0
    9.6240   13.3570   22.9340 N   0  0  0  0  0  0  0  0  0  0  0  0
    8.6510   12.9030   23.8510 C   0  0  0  0  0  0  0  0  0  0  0  0
    7.9040   13.7520   24.6680 C   0  0  0  0  0  0  0  0  0  0  0  0
    6.9110   13.2490   25.4930 C   0  0  0  0  0  0  0  0  0  0  0  0
    6.6530   11.8900   25.5300 C   0  0  0  0  0  0  0  0  0  0  0  0
    8.3920   11.5200   23.9000 C   0  0  0  0  0  0  0  0  0  0  0  0
    7.3990   11.0080   24.7470 C   0  0  0  0  0  0  0  0  0  0  0  0
    7.4430    9.5850   24.5370 C   0  0  0  0  0  0  0  0  0  0  0  0
    9.0080   10.5480   23.1950 N   0  0  0  0  0  0  0  0  0  0  0  0
    8.3970    9.3990   23.6150 N   0  0  0  0  0  0  0  0  0  0  0  0
    8.8310    8.1490   22.9930 C   0  0  0  0  0  0  0  0  0  0  0  0
  2  1  2  0
  3  2  1  0
  4  3  1  0
  5  4  1  0
  6  5  2  0
  7  6  1  0
  8  7  1  0
  8  4  2  0
  9  2  1  0
 10  9  1  0
 11 10  2  0
 12 11  1  0
 13 12  2  0
 14 10  1  0
 15 14  1  0
 15 13  1  0
 16 15  2  0
 17 14  2  0
 18 17  1  0
 18 16  1  0
 19 18  1  0
M  END
>  <id>  (21) 
207349

>  <inchikey>  (21) 
YEAWWZXWMQIDNB-UHFFFAOYSA-N

>  <alias>  (21) 
A3403a

>  <name>  (21) 
A3403a

>  <smiles>  (21) 
Cn1cc2cccc(NC(=O)Cc3cocn3)c2n1

>  <path>  (21) 
/opt/xchem-fragalysis-2/maxwin/2A_HIPPO/A71EV2A_P3only_20241209/aligned_files/A3403a/A3403a.pdb

>  <distance_score>  (21) 
None

>  <energy_score>  (21) 
None

>  <compound>  (21) 
YEAWWZXWMQIDNB-UHFFFAOYSA-N

>  <compound_id>  (21) 
122394

>  <target>  (21) 
A71EV2A

$$$$
A71EV2A-x3408_A_201_1_A71EV2A-x0526+A+147+1__LIG
     RDKit          3D

 14 14  0  0  0  0  0  0  0  0999 V2000
    9.6880   16.2810   19.4910 O   0  0  0  0  0  0  0  0  0  0  0  0
   10.0000   15.1040   19.6750 C   0  0  0  0  0  0  0  0  0  0  0  0
   10.3420   14.2840   18.6910 N   0  0  0  0  0  0  0  0  0  0  0  0
    9.9220   14.4800   21.0560 C   0  0  1  0  0  0  0  0  0  0  0  0
   10.8380   15.1650   22.0610 C   0  0  0  0  0  0  0  0  0  0  0  0
   10.7500   14.4940   23.4300 C   0  0  0  0  0  0  0  0  0  0  0  0
    9.3120   14.3160   23.8970 C   0  0  0  0  0  0  0  0  0  0  0  0
    8.5170   14.6670   21.6090 C   0  0  0  0  0  0  0  0  0  0  0  0
    8.4170   13.8450   22.8230 N   0  0  0  0  0  0  0  0  0  0  0  0
    6.8850   13.4240   23.2540 S   0  0  1  0  0  0  0  0  0  0  0  0
    6.2880   12.8230   22.1430 O   0  0  0  0  0  0  0  0  0  0  0  0
    6.9710   12.8280   24.4490 O   0  0  0  0  0  0  0  0  0  0  0  0
    6.2880   14.8730   23.1150 C   0  0  0  0  0  0  0  0  0  0  0  0
    5.8680   15.5570   24.0210 C   0  0  0  0  0  0  0  0  0  0  0  0
  2  1  2  0
  3  2  1  0
  4  2  1  6
  5  4  1  0
  6  5  1  0
  7  6  1  0
  8  4  1  0
  9  8  1  0
  9  7  1  0
 10  9  1  6
 11 10  2  0
 12 10  2  0
 13 10  1  0
 14 13  2  0
M  END
>  <id>  (22) 
207350

>  <inchikey>  (22) 
FSNFOMGLDYESSZ-ZETCQYMHSA-N

>  <alias>  (22) 
A3408a

>  <name>  (22) 
A3408a

>  <smiles>  (22) 
C=CS(=O)(=O)N1CCC[C@H](C(N)=O)C1

>  <path>  (22) 
/opt/xchem-fragalysis-2/maxwin/2A_HIPPO/A71EV2A_P3only_20241209/aligned_files/A3408a/A3408a.pdb

>  <distance_score>  (22) 
None

>  <energy_score>  (22) 
None

>  <compound>  (22) 
FSNFOMGLDYESSZ-UHFFFAOYSA-N

>  <compound_id>  (22) 
122395

>  <target>  (22) 
A71EV2A

$$$$
A71EV2A-x3410_A_201_1_A71EV2A-x0526+A+147+1__LIG
     RDKit          3D

 21 23  0  0  0  0  0  0  0  0999 V2000
   11.2890   14.6570   24.8220 O   0  0  0  0  0  0  0  0  0  0  0  0
   10.8740   13.8610   23.9820 C   0  0  0  0  0  0  0  0  0  0  0  0
    9.7570   12.9250   24.3070 C   0  0  0  0  0  0  0  0  0  0  0  0
    9.7990   11.6330   23.7860 C   0  0  0  0  0  0  0  0  0  0  0  0
    8.7400   13.2910   25.1930 C   0  0  0  0  0  0  0  0  0  0  0  0
    7.7720   12.3830   25.5890 C   0  0  0  0  0  0  0  0  0  0  0  0
    7.8240   11.0710   25.1240 C   0  0  0  0  0  0  0  0  0  0  0  0
    8.8390   10.7250   24.2120 C   0  0  0  0  0  0  0  0  0  0  0  0
    8.6690    9.4080   23.9350 N   0  0  0  0  0  0  0  0  0  0  0  0
    9.5190    8.5520   23.1200 C   0  0  0  0  0  0  0  0  0  0  0  0
    7.5920    8.8790   24.6010 N   0  0  0  0  0  0  0  0  0  0  0  0
    7.0870    9.8600   25.3230 C   0  0  0  0  0  0  0  0  0  0  0  0
    5.9000    9.6220   26.2250 C   0  0  0  0  0  0  0  0  0  0  0  0
   11.3840   13.7950   22.7470 N   0  0  0  0  0  0  0  0  0  0  0  0
   12.3930   14.7590   22.3090 C   0  0  0  0  0  0  0  0  0  0  0  0
   12.3920   14.9220   20.7990 C   0  0  0  0  0  0  0  0  0  0  0  0
   11.1420   15.5960   20.3480 C   0  0  0  0  0  0  0  0  0  0  0  0
   10.4920   16.5450   21.1340 N   0  0  0  0  0  0  0  0  0  0  0  0
    9.4480   16.8490   20.4520 C   0  0  0  0  0  0  0  0  0  0  0  0
    9.3360   16.2170   19.2630 O   0  0  0  0  0  0  0  0  0  0  0  0
   10.4400   15.4210   19.2190 C   0  0  0  0  0  0  0  0  0  0  0  0
  2  1  2  0
  3  2  1  0
  4  3  2  0
  5  3  1  0
  6  5  2  0
  7  6  1  0
  8  7  2  0
  8  4  1  0
  9  8  1  0
 10  9  1  0
 11  9  1  0
 12 11  2  0
 12  7  1  0
 13 12  1  0
 14  2  1  0
 15 14  1  0
 16 15  1  0
 17 16  1  0
 18 17  1  0
 19 18  2  0
 20 19  1  0
 21 20  1  0
 21 17  2  0
M  END
>  <id>  (23) 
207351

>  <inchikey>  (23) 
LIYDFYCGCLXSCX-UHFFFAOYSA-N

>  <alias>  (23) 
A3410a

>  <name>  (23) 
A3410a

>  <smiles>  (23) 
Cc1nn(C)c2cc(C(=O)NCCc3cocn3)ccc12

>  <path>  (23) 
/opt/xchem-fragalysis-2/maxwin/2A_HIPPO/A71EV2A_P3only_20241209/aligned_files/A3410a/A3410a.pdb

>  <distance_score>  (23) 
None

>  <energy_score>  (23) 
None

>  <compound>  (23) 
LIYDFYCGCLXSCX-UHFFFAOYSA-N

>  <compound_id>  (23) 
122396

>  <target>  (23) 
A71EV2A

$$$$
A71EV2A-x3417_A_201_1_A71EV2A-x0526+A+147+1__LIG
     RDKit          3D

 16 17  0  0  0  0  0  0  0  0999 V2000
    7.2960   12.7530   22.9810 O   0  0  0  0  0  0  0  0  0  0  0  0
    8.2390   13.1570   23.6380 C   0  0  0  0  0  0  0  0  0  0  0  0
    8.7130   12.4790   24.7030 N   0  0  0  0  0  0  0  0  0  0  0  0
    8.0540   11.2880   25.2450 C   0  0  0  0  0  0  0  0  0  0  0  0
    8.8040   10.0060   24.9040 C   0  0  1  0  0  0  0  0  0  0  0  0
    9.5890    9.8640   23.6460 C   0  0  0  0  0  0  0  0  0  0  0  0
   10.3080    9.9650   24.9460 C   0  0  0  0  0  0  0  0  0  0  0  0
    8.8130   14.3680   23.3690 N   0  0  0  0  0  0  0  0  0  0  0  0
    9.8670   14.9790   24.1930 C   0  0  0  0  0  0  0  0  0  0  0  0
   11.2120   14.8380   23.4890 C   0  0  0  0  0  0  0  0  0  0  0  0
   11.1380   15.4740   22.0980 C   0  0  0  0  0  0  0  0  0  0  0  0
    8.6900   14.9360   22.0210 C   0  0  0  0  0  0  0  0  0  0  0  0
   10.0170   14.8020   21.2680 C   0  0  1  0  0  0  0  0  0  0  0  0
    9.9170   15.3800   19.8670 C   0  0  0  0  0  0  0  0  0  0  0  0
    9.4430   16.5080   19.6780 O   0  0  0  0  0  0  0  0  0  0  0  0
   10.3500   14.5950   18.8790 N   0  0  0  0  0  0  0  0  0  0  0  0
  2  1  2  0
  3  2  1  0
  4  3  1  0
  5  4  1  6
  6  5  1  0
  7  6  1  0
  7  5  1  0
  8  2  1  0
  9  8  1  0
 10  9  1  0
 11 10  1  0
 12  8  1  0
 13 12  1  0
 13 11  1  0
 13 14  1  6
 15 14  2  0
 16 14  1  0
M  END
>  <id>  (24) 
207352

>  <inchikey>  (24) 
FPQQXSDKENBGCM-VIFPVBQESA-N

>  <alias>  (24) 
A3417a

>  <name>  (24) 
A3417a

>  <smiles>  (24) 
NC(=O)[C@H]1CCCN(C(=O)NCC2CC2)C1

>  <path>  (24) 
/opt/xchem-fragalysis-2/maxwin/2A_HIPPO/A71EV2A_P3only_20241209/aligned_files/A3417a/A3417a.pdb

>  <distance_score>  (24) 
None

>  <energy_score>  (24) 
None

>  <compound>  (24) 
FPQQXSDKENBGCM-UHFFFAOYSA-N

>  <compound_id>  (24) 
122397

>  <target>  (24) 
A71EV2A

$$$$
A71EV2A-x3419_A_201_1_A71EV2A-x0526+A+147+1__LIG
     RDKit          3D

 22 24  0  0  0  0  0  0  0  0999 V2000
    7.7690    8.4120   24.7670 O   0  0  0  0  0  0  0  0  0  0  0  0
    8.2730    9.5090   24.6490 C   0  0  0  0  0  0  0  0  0  0  0  0
    9.3330    9.7060   23.7880 N   0  0  0  0  0  0  0  0  0  0  0  0
    9.9140    8.5900   23.0580 C   0  0  0  0  0  0  0  0  0  0  0  0
    7.7690   10.7240   25.2930 C   0  0  0  0  0  0  0  0  0  0  0  0
    6.6840   10.6520   26.1710 C   0  0  0  0  0  0  0  0  0  0  0  0
    6.1600   11.8090   26.7180 C   0  0  0  0  0  0  0  0  0  0  0  0
    6.7170   13.0360   26.4220 C   0  0  0  0  0  0  0  0  0  0  0  0
    7.8100   13.1200   25.5770 C   0  0  0  0  0  0  0  0  0  0  0  0
    8.3600   11.9640   25.0240 C   0  0  0  0  0  0  0  0  0  0  0  0
    9.5360   11.9740   24.1270 C   0  0  0  0  0  0  0  0  0  0  0  0
    9.9780   10.8960   23.5490 N   0  0  0  0  0  0  0  0  0  0  0  0
   10.4070   13.1940   23.9460 C   0  0  0  0  0  0  0  0  0  0  0  0
   10.5340   14.0040   24.8490 O   0  0  0  0  0  0  0  0  0  0  0  0
   11.0400   13.3100   22.7690 N   0  0  0  0  0  0  0  0  0  0  0  0
   12.0620   14.3270   22.5670 C   0  0  0  0  0  0  0  0  0  0  0  0
   12.2270   14.6640   21.0970 C   0  0  0  0  0  0  0  0  0  0  0  0
   11.0190   15.3570   20.5560 C   0  0  0  0  0  0  0  0  0  0  0  0
   10.2840   16.2420   21.3250 N   0  0  0  0  0  0  0  0  0  0  0  0
    9.3160   16.5940   20.5560 C   0  0  0  0  0  0  0  0  0  0  0  0
    9.3370   16.0600   19.3170 O   0  0  0  0  0  0  0  0  0  0  0  0
   10.4440   15.2570   19.3480 C   0  0  0  0  0  0  0  0  0  0  0  0
  2  1  2  0
  3  2  1  0
  4  3  1  0
  5  2  1  0
  6  5  2  0
  7  6  1  0
  8  7  2  0
  9  8  1  0
 10  5  1  0
 10  9  2  0
 11 10  1  0
 12  3  1  0
 12 11  2  0
 13 11  1  0
 14 13  2  0
 15 13  1  0
 16 15  1  0
 17 16  1  0
 18 17  1  0
 19 18  1  0
 20 19  2  0
 21 20  1  0
 22 21  1  0
 22 18  2  0
M  END
>  <id>  (25) 
207353

>  <inchikey>  (25) 
LDVAVSGFMNNJNN-UHFFFAOYSA-N

>  <alias>  (25) 
A3419a

>  <name>  (25) 
A3419a

>  <smiles>  (25) 
Cn1nc(C(=O)NCCc2cocn2)c2ccccc2c1=O

>  <path>  (25) 
/opt/xchem-fragalysis-2/maxwin/2A_HIPPO/A71EV2A_P3only_20241209/aligned_files/A3419a/A3419a.pdb

>  <distance_score>  (25) 
None

>  <energy_score>  (25) 
None

>  <compound>  (25) 
LDVAVSGFMNNJNN-UHFFFAOYSA-N

>  <compound_id>  (25) 
122398

>  <target>  (25) 
A71EV2A

$$$$
A71EV2A-x3435_A_201_1_A71EV2A-x0526+A+147+1__LIG
     RDKit          3D

 16 17  0  0  0  0  0  0  0  0999 V2000
    9.9370   13.7520   25.2240 O   0  0  0  0  0  0  0  0  0  0  0  0
    9.8180   13.0270   24.2370 C   0  0  0  0  0  0  0  0  0  0  0  0
    8.9280   11.8350   24.2980 C   0  0  0  0  0  0  0  0  0  0  0  0
    7.8830   11.8720   25.2200 C   0  0  0  0  0  0  0  0  0  0  0  0
    7.1580   10.7290   25.5060 C   0  0  0  0  0  0  0  0  0  0  0  0
    7.4410    9.5440   24.8540 C   0  0  0  0  0  0  0  0  0  0  0  0
    8.4820    9.4890   23.9340 C   0  0  0  0  0  0  0  0  0  0  0  0
    9.2230   10.6250   23.6560 C   0  0  0  0  0  0  0  0  0  0  0  0
   10.5110   13.2230   23.1050 N   0  0  0  0  0  0  0  0  0  0  0  0
   11.5470   14.2510   23.0410 C   0  0  0  0  0  0  0  0  0  0  0  0
   11.8550   14.6930   21.6260 C   0  0  0  0  0  0  0  0  0  0  0  0
   10.7200   15.4040   20.9590 C   0  0  0  0  0  0  0  0  0  0  0  0
   10.0130   16.4190   21.5990 N   0  0  0  0  0  0  0  0  0  0  0  0
    9.1560   16.8000   20.7210 C   0  0  0  0  0  0  0  0  0  0  0  0
    9.2090   16.1500   19.5400 O   0  0  0  0  0  0  0  0  0  0  0  0
   10.2250   15.2500   19.7230 C   0  0  0  0  0  0  0  0  0  0  0  0
  2  1  2  0
  3  2  1  0
  4  3  2  0
  5  4  1  0
  6  5  2  0
  7  6  1  0
  8  7  2  0
  8  3  1  0
  9  2  1  0
 10  9  1  0
 11 10  1  0
 12 11  1  0
 13 12  1  0
 14 13  2  0
 15 14  1  0
 16 15  1  0
 16 12  2  0
M  END
>  <id>  (26) 
207354

>  <inchikey>  (26) 
INXUYTDTOJRNGX-UHFFFAOYSA-N

>  <alias>  (26) 
A3435a

>  <name>  (26) 
A3435a

>  <smiles>  (26) 
O=C(NCCc1cocn1)c1ccccc1

>  <path>  (26) 
/opt/xchem-fragalysis-2/maxwin/2A_HIPPO/A71EV2A_P3only_20241209/aligned_files/A3435a/A3435a.pdb

>  <distance_score>  (26) 
None

>  <energy_score>  (26) 
None

>  <compound>  (26) 
INXUYTDTOJRNGX-UHFFFAOYSA-N

>  <compound_id>  (26) 
122399

>  <target>  (26) 
A71EV2A

$$$$
A71EV2A-x3436_A_201_1_A71EV2A-x0526+A+147+1__LIG
     RDKit          3D

 16 17  0  0  0  0  0  0  0  0999 V2000
    9.5200   14.0450   24.8630 O   0  0  0  0  0  0  0  0  0  0  0  0
    9.6640   13.1910   23.9800 C   0  0  0  0  0  0  0  0  0  0  0  0
    9.0300   11.8620   24.1000 C   0  0  0  0  0  0  0  0  0  0  0  0
    7.9920   11.4140   24.9270 C   0  0  0  0  0  0  0  0  0  0  0  0
    7.8330   10.1090   24.7330 N   0  0  0  0  0  0  0  0  0  0  0  0
    9.5130   10.8160   23.3980 N   0  0  0  0  0  0  0  0  0  0  0  0
    8.7760    9.8000   23.8370 N   0  0  0  0  0  0  0  0  0  0  0  0
    9.0160    8.4310   23.4010 C   0  0  0  0  0  0  0  0  0  0  0  0
   10.4740   13.3570   22.9220 N   0  0  0  0  0  0  0  0  0  0  0  0
   11.4550   14.4380   22.8690 C   0  0  0  0  0  0  0  0  0  0  0  0
   11.7770   14.8620   21.4500 C   0  0  0  0  0  0  0  0  0  0  0  0
   10.6010   15.5480   20.8320 C   0  0  0  0  0  0  0  0  0  0  0  0
    9.9110   16.5610   21.4940 N   0  0  0  0  0  0  0  0  0  0  0  0
    9.0140   16.9250   20.6540 C   0  0  0  0  0  0  0  0  0  0  0  0
    9.0270   16.2630   19.4760 O   0  0  0  0  0  0  0  0  0  0  0  0
   10.0540   15.3770   19.6220 C   0  0  0  0  0  0  0  0  0  0  0  0
  2  1  2  0
  3  2  1  0
  4  3  1  0
  5  4  2  0
  6  3  2  0
  7  6  1  0
  7  5  1  0
  8  7  1  0
  9  2  1  0
 10  9  1  0
 11 10  1  0
 12 11  1  0
 13 12  1  0
 14 13  2  0
 15 14  1  0
 16 15  1  0
 16 12  2  0
M  END
>  <id>  (27) 
207355

>  <inchikey>  (27) 
PBFVVICHKJKWIA-UHFFFAOYSA-N

>  <alias>  (27) 
A3436a

>  <name>  (27) 
A3436a

>  <smiles>  (27) 
Cn1ncc(C(=O)NCCc2cocn2)n1

>  <path>  (27) 
/opt/xchem-fragalysis-2/maxwin/2A_HIPPO/A71EV2A_P3only_20241209/aligned_files/A3436a/A3436a.pdb

>  <distance_score>  (27) 
None

>  <energy_score>  (27) 
None

>  <compound>  (27) 
PBFVVICHKJKWIA-UHFFFAOYSA-N

>  <compound_id>  (27) 
122400

>  <target>  (27) 
A71EV2A

$$$$
A71EV2A-x3450_A_201_1_A71EV2A-x0526+A+147+1__LIG
     RDKit          3D

 19 20  0  0  0  0  0  0  0  0999 V2000
    9.8860   16.9780   19.5660 O   0  0  0  0  0  0  0  0  0  0  0  0
   10.2260   15.8070   19.7740 C   0  0  0  0  0  0  0  0  0  0  0  0
   10.5350   14.9640   18.8070 N   0  0  0  0  0  0  0  0  0  0  0  0
   10.2700   15.2390   21.1820 C   0  0  1  0  0  0  0  0  0  0  0  0
   11.2800   15.9840   22.0690 C   0  0  0  0  0  0  0  0  0  0  0  0
   11.2890   15.4290   23.4990 C   0  0  0  0  0  0  0  0  0  0  0  0
    9.8860   15.3950   24.0940 C   0  0  0  0  0  0  0  0  0  0  0  0
    8.8980   15.3890   21.8320 C   0  0  0  0  0  0  0  0  0  0  0  0
    8.9250   14.7790   23.1640 N   0  0  0  0  0  0  0  0  0  0  0  0
    8.1030   13.7430   23.4420 C   0  0  0  0  0  0  0  0  0  0  0  0
    7.2340   13.3740   22.6660 O   0  0  0  0  0  0  0  0  0  0  0  0
    8.3140   13.0530   24.7730 C   0  0  0  0  0  0  0  0  0  0  0  0
    8.4710   11.5820   24.4860 C   0  0  0  0  0  0  0  0  0  0  0  0
    7.6950   10.6160   25.0130 C   0  0  0  0  0  0  0  0  0  0  0  0
    6.6550   10.7900   25.9800 C   0  0  0  0  0  0  0  0  0  0  0  0
    5.8310   10.9750   26.7530 N   0  0  0  0  0  0  0  0  0  0  0  0
    9.4350   11.0340   23.5900 C   0  0  0  0  0  0  0  0  0  0  0  0
    9.3350    9.6970   23.4750 C   0  0  0  0  0  0  0  0  0  0  0  0
    8.0900    9.0740   24.4310 S   0  0  0  0  0  0  0  0  0  0  0  0
  2  1  2  0
  3  2  1  0
  4  2  1  6
  5  4  1  0
  6  5  1  0
  7  6  1  0
  8  4  1  0
  9  8  1  0
  9  7  1  0
 10  9  1  0
 11 10  2  0
 12 10  1  0
 13 12  1  0
 14 13  2  0
 15 14  1  0
 16 15  3  0
 17 13  1  0
 18 17  2  0
 19 18  1  0
 19 14  1  0
M  END
>  <id>  (28) 
207356

>  <inchikey>  (28) 
AQMCQXPYDBYMNV-JTQLQIEISA-N

>  <alias>  (28) 
A3450a

>  <name>  (28) 
A3450a

>  <smiles>  (28) 
N#Cc1sccc1CC(=O)N1CCC[C@H](C(N)=O)C1

>  <path>  (28) 
/opt/xchem-fragalysis-2/maxwin/2A_HIPPO/A71EV2A_P3only_20241209/aligned_files/A3450a/A3450a.pdb

>  <distance_score>  (28) 
None

>  <energy_score>  (28) 
None

>  <compound>  (28) 
AQMCQXPYDBYMNV-UHFFFAOYSA-N

>  <compound_id>  (28) 
122401

>  <target>  (28) 
A71EV2A

$$$$
A71EV2A-x3480_A_201_1_A71EV2A-x0526+A+147+1__LIG
     RDKit          3D

 21 22  0  0  0  0  0  0  0  0999 V2000
    9.7330   16.6640   19.4020 O   0  0  0  0  0  0  0  0  0  0  0  0
   10.2030   15.5450   19.6460 C   0  0  0  0  0  0  0  0  0  0  0  0
   10.7030   14.7590   18.7110 N   0  0  0  0  0  0  0  0  0  0  0  0
   10.1830   14.9750   21.0540 C   0  0  1  0  0  0  0  0  0  0  0  0
   11.1770   15.6760   22.0080 C   0  0  0  0  0  0  0  0  0  0  0  0
   11.2100   14.9320   23.3450 C   0  0  0  0  0  0  0  0  0  0  0  0
    9.8170   14.8950   23.9700 C   0  0  0  0  0  0  0  0  0  0  0  0
    8.8030   15.0370   21.7070 C   0  0  0  0  0  0  0  0  0  0  0  0
    8.8330   14.3650   23.0120 N   0  0  0  0  0  0  0  0  0  0  0  0
    7.8250   13.5280   23.3730 C   0  0  0  0  0  0  0  0  0  0  0  0
    7.0430   13.1150   22.5450 O   0  0  0  0  0  0  0  0  0  0  0  0
    7.7140   13.2590   24.7100 N   0  0  0  0  0  0  0  0  0  0  0  0
    6.7960   12.4190   25.3840 C   0  0  0  0  0  0  0  0  0  0  0  0
    7.0910   11.0690   25.4680 C   0  0  0  0  0  0  0  0  0  0  0  0
    6.3530   10.2600   26.3130 C   0  0  0  0  0  0  0  0  0  0  0  0
    5.3370   10.7930   27.0850 C   0  0  0  0  0  0  0  0  0  0  0  0
    5.7470   12.9430   26.1340 C   0  0  0  0  0  0  0  0  0  0  0  0
    5.0200   12.1400   27.0080 C   0  0  0  0  0  0  0  0  0  0  0  0
    3.9290   12.7430   27.8710 C   0  0  0  0  0  0  0  0  0  0  0  0
    2.5870   12.5870   27.3120 C   0  0  0  0  0  0  0  0  0  0  0  0
    1.5300   12.4750   26.9010 N   0  0  0  0  0  0  0  0  0  0  0  0
  2  1  2  0
  3  2  1  0
  4  2  1  6
  5  4  1  0
  6  5  1  0
  7  6  1  0
  8  4  1  0
  9  8  1  0
  9  7  1  0
 10  9  1  0
 11 10  2  0
 12 10  1  0
 13 12  1  0
 14 13  2  0
 15 14  1  0
 16 15  2  0
 17 13  1  0
 18 16  1  0
 18 17  2  0
 19 18  1  0
 20 19  1  0
 21 20  3  0
M  END
>  <id>  (29) 
207357

>  <inchikey>  (29) 
UDNDCMKCZBQOCR-LBPRGKRZSA-N

>  <alias>  (29) 
A3480a

>  <name>  (29) 
A3480a

>  <smiles>  (29) 
N#CCc1cccc(NC(=O)N2CCC[C@H](C(N)=O)C2)c1

>  <path>  (29) 
/opt/xchem-fragalysis-2/maxwin/2A_HIPPO/A71EV2A_P3only_20241209/aligned_files/A3480a/A3480a.pdb

>  <distance_score>  (29) 
None

>  <energy_score>  (29) 
None

>  <compound>  (29) 
UDNDCMKCZBQOCR-UHFFFAOYSA-N

>  <compound_id>  (29) 
122402

>  <target>  (29) 
A71EV2A

$$$$
A71EV2A-x3483_A_201_1_A71EV2A-x0526+A+147+1__LIG
     RDKit          3D

 21 22  0  0  0  0  0  0  0  0999 V2000
    9.8910   16.9330   19.3880 O   0  0  0  0  0  0  0  0  0  0  0  0
   10.2560   15.7760   19.6460 C   0  0  0  0  0  0  0  0  0  0  0  0
   10.6140   14.9080   18.7150 N   0  0  0  0  0  0  0  0  0  0  0  0
   10.2980   15.2670   21.0770 C   0  0  1  0  0  0  0  0  0  0  0  0
   11.3550   16.0110   21.9180 C   0  0  0  0  0  0  0  0  0  0  0  0
   11.1760   15.8140   23.4290 C   0  0  0  0  0  0  0  0  0  0  0  0
   10.2520   14.6630   23.7260 C   0  0  0  0  0  0  0  0  0  0  0  0
    8.9210   15.3910   21.7310 C   0  0  0  0  0  0  0  0  0  0  0  0
    8.9330   14.8350   23.0910 N   0  0  0  0  0  0  0  0  0  0  0  0
    8.0460   13.8490   23.4150 C   0  0  0  0  0  0  0  0  0  0  0  0
    7.3310   13.3260   22.5740 O   0  0  0  0  0  0  0  0  0  0  0  0
    7.8880   13.6060   24.7420 N   0  0  0  0  0  0  0  0  0  0  0  0
    7.1060   12.5670   25.2930 C   0  0  0  0  0  0  0  0  0  0  0  0
    5.9370   12.8050   26.0160 C   0  0  0  0  0  0  0  0  0  0  0  0
    5.2830   11.7470   26.6330 C   0  0  0  0  0  0  0  0  0  0  0  0
    5.7710   10.4720   26.5170 C   0  0  0  0  0  0  0  0  0  0  0  0
    6.9100   10.2250   25.7740 C   0  0  0  0  0  0  0  0  0  0  0  0
    7.5980   11.2620   25.1520 C   0  0  0  0  0  0  0  0  0  0  0  0
    8.8320   10.9260   24.3550 C   0  0  0  0  0  0  0  0  0  0  0  0
    9.1410    9.5650   24.5050 O   0  0  0  0  0  0  0  0  0  0  0  0
    9.5770    9.0050   23.2970 C   0  0  0  0  0  0  0  0  0  0  0  0
  2  1  2  0
  3  2  1  0
  4  2  1  6
  5  4  1  0
  6  5  1  0
  7  6  1  0
  8  4  1  0
  9  8  1  0
  9  7  1  0
 10  9  1  0
 11 10  2  0
 12 10  1  0
 13 12  1  0
 14 13  2  0
 15 14  1  0
 16 15  2  0
 17 16  1  0
 18 17  2  0
 18 13  1  0
 19 18  1  0
 20 19  1  0
 21 20  1  0
M  END
>  <id>  (30) 
207358

>  <inchikey>  (30) 
GUBBGFXTNMOAAR-NSHDSACASA-N

>  <alias>  (30) 
A3483a

>  <name>  (30) 
A3483a

>  <smiles>  (30) 
COCc1ccccc1NC(=O)N1CCC[C@H](C(N)=O)C1

>  <path>  (30) 
/opt/xchem-fragalysis-2/maxwin/2A_HIPPO/A71EV2A_P3only_20241209/aligned_files/A3483a/A3483a.pdb

>  <distance_score>  (30) 
None

>  <energy_score>  (30) 
None

>  <compound>  (30) 
GUBBGFXTNMOAAR-UHFFFAOYSA-N

>  <compound_id>  (30) 
122403

>  <target>  (30) 
A71EV2A

$$$$
A71EV2A-x3485_A_201_1_A71EV2A-x0526+A+147+1__LIG
     RDKit          3D

 20 21  0  0  0  0  0  0  0  0999 V2000
    9.9230   17.0760   19.5800 O   0  0  0  0  0  0  0  0  0  0  0  0
   10.2600   15.9020   19.8030 C   0  0  0  0  0  0  0  0  0  0  0  0
   10.5830   15.0480   18.8440 N   0  0  0  0  0  0  0  0  0  0  0  0
   10.3210   15.3590   21.2200 C   0  0  1  0  0  0  0  0  0  0  0  0
   11.3890   16.0800   22.0580 C   0  0  0  0  0  0  0  0  0  0  0  0
   11.3570   15.6440   23.5280 C   0  0  0  0  0  0  0  0  0  0  0  0
    9.9530   15.7370   24.1060 C   0  0  0  0  0  0  0  0  0  0  0  0
    8.9490   15.5450   21.8630 C   0  0  0  0  0  0  0  0  0  0  0  0
    8.9740   15.0540   23.2450 N   0  0  0  0  0  0  0  0  0  0  0  0
    8.2690   13.9130   23.5270 C   0  0  0  0  0  0  0  0  0  0  0  0
    7.5580   13.3710   22.6870 O   0  0  0  0  0  0  0  0  0  0  0  0
    8.2580   13.5130   24.8320 N   0  0  0  0  0  0  0  0  0  0  0  0
    7.6700   12.2890   25.2420 C   0  0  0  0  0  0  0  0  0  0  0  0
    6.6840   12.1300   26.2120 C   0  0  0  0  0  0  0  0  0  0  0  0
    6.1630   10.8710   26.4700 C   0  0  0  0  0  0  0  0  0  0  0  0
    6.6320    9.7650   25.7810 C   0  0  0  0  0  0  0  0  0  0  0  0
    8.1570   11.1800   24.5620 C   0  0  0  0  0  0  0  0  0  0  0  0
    7.6450    9.9230   24.8470 C   0  0  0  0  0  0  0  0  0  0  0  0
    8.1480    8.8050   24.2360 O   0  0  0  0  0  0  0  0  0  0  0  0
    9.3810    8.9140   23.5140 C   0  0  0  0  0  0  0  0  0  0  0  0
  2  1  2  0
  3  2  1  0
  4  2  1  6
  5  4  1  0
  6  5  1  0
  7  6  1  0
  8  4  1  0
  9  8  1  0
  9  7  1  0
 10  9  1  0
 11 10  2  0
 12 10  1  0
 13 12  1  0
 14 13  2  0
 15 14  1  0
 16 15  2  0
 17 13  1  0
 18 16  1  0
 18 17  2  0
 19 18  1  0
 20 19  1  0
M  END
>  <id>  (31) 
207359

>  <inchikey>  (31) 
JKJIXILNAMCJIA-JTQLQIEISA-N

>  <alias>  (31) 
A3485a

>  <name>  (31) 
A3485a

>  <smiles>  (31) 
COc1cccc(NC(=O)N2CCC[C@H](C(N)=O)C2)c1

>  <path>  (31) 
/opt/xchem-fragalysis-2/maxwin/2A_HIPPO/A71EV2A_P3only_20241209/aligned_files/A3485a/A3485a.pdb

>  <distance_score>  (31) 
None

>  <energy_score>  (31) 
None

>  <compound>  (31) 
JKJIXILNAMCJIA-UHFFFAOYSA-N

>  <compound_id>  (31) 
122404

>  <target>  (31) 
A71EV2A

$$$$
A71EV2A-x3488_A_201_1_A71EV2A-x0526+A+147+1__LIG
     RDKit          3D

 24 25  0  0  0  0  0  0  0  0999 V2000
    9.4890   16.3760   19.4390 O   0  0  0  0  0  0  0  0  0  0  0  0
   10.2910   15.4630   19.7080 C   0  0  0  0  0  0  0  0  0  0  0  0
   11.0350   14.8680   18.7880 N   0  0  0  0  0  0  0  0  0  0  0  0
   10.4510   15.0160   21.1370 C   0  0  0  0  0  0  0  0  0  0  0  0
   11.7020   14.9390   21.7350 C   0  0  0  0  0  0  0  0  0  0  0  0
   11.8230   14.5740   23.0660 C   0  0  0  0  0  0  0  0  0  0  0  0
   10.7020   14.2660   23.8140 C   0  0  0  0  0  0  0  0  0  0  0  0
    9.3200   14.6840   21.8780 C   0  0  0  0  0  0  0  0  0  0  0  0
    9.4540   14.3060   23.2060 C   0  0  0  0  0  0  0  0  0  0  0  0
    8.2940   13.9860   23.9080 O   0  0  0  0  0  0  0  0  0  0  0  0
    8.0590   12.6660   24.2480 C   0  0  0  0  0  0  0  0  0  0  0  0
    8.7140   11.6020   23.6400 C   0  0  0  0  0  0  0  0  0  0  0  0
    8.4050   10.2910   23.9880 C   0  0  0  0  0  0  0  0  0  0  0  0
    9.1150    9.1240   23.3410 C   0  0  0  0  0  0  0  0  0  0  0  0
    7.4380   10.0790   24.9620 C   0  0  0  0  0  0  0  0  0  0  0  0
    6.8100   11.1380   25.5840 C   0  0  0  0  0  0  0  0  0  0  0  0
    5.6510   10.7990   26.8290 Cl  0  0  0  0  0  0  0  0  0  0  0  0
    7.0900   12.4570   25.2420 C   0  0  0  0  0  0  0  0  0  0  0  0
    6.4160   13.5670   25.8680 N   0  0  0  0  0  0  0  0  0  0  0  0
    7.0800   14.5970   26.4670 C   0  0  0  0  0  0  0  0  0  0  0  0
    8.2810   14.5810   26.7230 O   0  0  0  0  0  0  0  0  0  0  0  0
    6.2840   15.8540   26.7450 C   0  0  0  0  0  0  0  0  0  0  0  0
    4.9310   15.6940   26.3810 O   0  0  0  0  0  0  0  0  0  0  0  0
    4.0820   16.6090   27.0750 C   0  0  0  0  0  0  0  0  0  0  0  0
  2  1  2  0
  3  2  1  0
  4  2  1  0
  5  4  2  0
  6  5  1  0
  7  6  2  0
  8  4  1  0
  9  8  2  0
  9  7  1  0
 10  9  1  0
 11 10  1  0
 12 11  2  0
 13 12  1  0
 14 13  1  0
 15 13  2  0
 16 15  1  0
 17 16  1  0
 18 16  2  0
 18 11  1  0
 19 18  1  0
 20 19  1  0
 21 20  2  0
 22 20  1  0
 23 22  1  0
 24 23  1  0
M  END
>  <id>  (32) 
207360

>  <inchikey>  (32) 
LXRCATLQYMSZTR-UHFFFAOYSA-N

>  <alias>  (32) 
A3488a

>  <name>  (32) 
A3488a

>  <smiles>  (32) 
COCC(=O)Nc1c(Cl)cc(C)cc1Oc1cccc(C(N)=O)c1

>  <path>  (32) 
/opt/xchem-fragalysis-2/maxwin/2A_HIPPO/A71EV2A_P3only_20241209/aligned_files/A3488a/A3488a.pdb

>  <distance_score>  (32) 
None

>  <energy_score>  (32) 
None

>  <compound>  (32) 
LXRCATLQYMSZTR-UHFFFAOYSA-N

>  <compound_id>  (32) 
122405

>  <target>  (32) 
A71EV2A

$$$$
A71EV2A-x3489_A_201_1_A71EV2A-x0526+A+147+1__LIG
     RDKit          3D

 22 24  0  0  0  0  0  0  0  0999 V2000
    9.8770   16.6340   19.7030 O   0  0  0  0  0  0  0  0  0  0  0  0
   10.4760   15.5590   19.7990 C   0  0  0  0  0  0  0  0  0  0  0  0
   10.9240   14.8920   18.7450 N   0  0  0  0  0  0  0  0  0  0  0  0
   10.6880   14.8970   21.1510 C   0  0  1  0  0  0  0  0  0  0  0  0
   11.7080   15.6580   22.0070 C   0  0  0  0  0  0  0  0  0  0  0  0
   11.8560   15.0440   23.4030 C   0  0  0  0  0  0  0  0  0  0  0  0
   10.5040   14.8920   24.1020 C   0  0  0  0  0  0  0  0  0  0  0  0
    9.3610   14.9200   21.9110 C   0  0  0  0  0  0  0  0  0  0  0  0
    9.5120   14.2650   23.2120 N   0  0  0  0  0  0  0  0  0  0  0  0
    8.7650   13.1830   23.5150 C   0  0  0  0  0  0  0  0  0  0  0  0
    7.8000   12.8450   22.8390 O   0  0  0  0  0  0  0  0  0  0  0  0
    9.2190   12.3840   24.7220 C   0  0  0  0  0  0  0  0  0  0  0  0
    8.3590   11.2050   25.0430 C   0  0  0  0  0  0  0  0  0  0  0  0
    8.4310    9.8650   24.6800 C   0  0  0  0  0  0  0  0  0  0  0  0
    9.4230    9.1450   23.8260 C   0  0  0  0  0  0  0  0  0  0  0  0
    7.2600   11.3080   25.8670 N   0  0  0  0  0  0  0  0  0  0  0  0
    6.6610   12.5320   26.4360 C   0  0  0  0  0  0  0  0  0  0  0  0
    5.8780   12.2060   27.6960 C   0  0  0  0  0  0  0  0  0  0  0  0
    4.8960   11.0730   27.4510 C   0  0  0  0  0  0  0  0  0  0  0  0
    5.5780    9.8080   26.9290 C   0  0  0  0  0  0  0  0  0  0  0  0
    6.7240   10.0470   25.9930 C   0  0  0  0  0  0  0  0  0  0  0  0
    7.4040    9.1680   25.2800 N   0  0  0  0  0  0  0  0  0  0  0  0
  2  1  2  0
  3  2  1  0
  4  2  1  6
  5  4  1  0
  6  5  1  0
  7  6  1  0
  8  4  1  0
  9  8  1  0
  9  7  1  0
 10  9  1  0
 11 10  2  0
 12 10  1  0
 13 12  1  0
 14 13  2  0
 15 14  1  0
 16 13  1  0
 17 16  1  0
 18 17  1  0
 19 18  1  0
 20 19  1  0
 21 20  1  0
 21 16  1  0
 22 21  2  0
 22 14  1  0
M  END
>  <id>  (33) 
207361

>  <inchikey>  (33) 
FXTPOBAQIFAHIO-LBPRGKRZSA-N

>  <alias>  (33) 
A3489a

>  <name>  (33) 
A3489a

>  <smiles>  (33) 
Cc1nc2n(c1CC(=O)N1CCC[C@H](C(N)=O)C1)CCCC2

>  <path>  (33) 
/opt/xchem-fragalysis-2/maxwin/2A_HIPPO/A71EV2A_P3only_20241209/aligned_files/A3489a/A3489a.pdb

>  <distance_score>  (33) 
None

>  <energy_score>  (33) 
None

>  <compound>  (33) 
FXTPOBAQIFAHIO-UHFFFAOYSA-N

>  <compound_id>  (33) 
122406

>  <target>  (33) 
A71EV2A

$$$$
