A71EV2A-x3286_A_201_1_A71EV2A-x0526+A+147+1__LIG
     RDKit          3D

 21 23  0  0  0  0  0  0  0  0999 V2000
    9.4960   14.2160   25.2970 O   0  0  0  0  0  0  0  0  0  0  0  0
    9.7910   13.4020   24.4140 C   0  0  0  0  0  0  0  0  0  0  0  0
    9.1350   12.0860   24.3620 C   0  0  0  0  0  0  0  0  0  0  0  0
    8.0560   11.6060   25.1650 C   0  0  0  0  0  0  0  0  0  0  0  0
    7.2160   12.1500   26.1480 C   0  0  0  0  0  0  0  0  0  0  0  0
    6.2860   11.3310   26.7600 C   0  0  0  0  0  0  0  0  0  0  0  0
    6.1910    9.9790   26.4240 C   0  0  0  0  0  0  0  0  0  0  0  0
    7.0150    9.4260   25.4480 C   0  0  0  0  0  0  0  0  0  0  0  0
    7.9290   10.2550   24.8240 C   0  0  0  0  0  0  0  0  0  0  0  0
    8.8630   10.0050   23.8640 N   0  0  0  0  0  0  0  0  0  0  0  0
    9.2240    8.7230   23.2630 C   0  0  0  0  0  0  0  0  0  0  0  0
    9.6070   11.1190   23.5690 N   0  0  0  0  0  0  0  0  0  0  0  0
   10.6860   13.6410   23.4600 N   0  0  0  0  0  0  0  0  0  0  0  0
   11.5870   14.7880   23.5480 C   0  0  0  0  0  0  0  0  0  0  0  0
   11.9590   15.3520   22.1780 C   0  0  0  0  0  0  0  0  0  0  0  0
   10.8250   16.0210   21.4490 C   0  0  0  0  0  0  0  0  0  0  0  0
   10.4510   15.9040   20.1590 C   0  0  0  0  0  0  0  0  0  0  0  0
   10.9970   15.2030   18.9730 C   0  0  0  0  0  0  0  0  0  0  0  0
   10.0460   17.0160   22.0370 N   0  0  0  0  0  0  0  0  0  0  0  0
    9.2390   17.3740   21.1150 C   0  0  0  0  0  0  0  0  0  0  0  0
    9.4060   16.7480   19.9280 O   0  0  0  0  0  0  0  0  0  0  0  0
 18 17  1  0
 17 21  1  0
 21 20  1  0
 20 19  2  0
 19 16  1  0
 17 16  2  0
 16 15  1  0
 15 14  1  0
 14 13  1  0
 13  2  1  0
  2  1  2  0
  3  2  1  0
  3 12  2  0
 12 10  1  0
 11 10  1  0
 10  9  1  0
  9  8  1  0
  8  7  2  0
  7  6  1  0
  6  5  2  0
  5  4  1  0
  4  3  1  0
  9  4  2  0
M  END
$$$$
