A71EV2A-x3938_A_201_v2
     RDKit          3D

 18 19  0  0  0  0  0  0  0  0999 V2000
   10.7330   14.5860   18.8500 O   0  0  0  0  0  0  0  0  0  0  0  0
   10.1380   15.2080   19.7390 C   0  0  0  0  0  0  0  0  0  0  0  0
    9.4800   16.3330   19.5130 N   0  0  0  0  0  0  0  0  0  0  0  0
   10.1520   14.7220   21.1780 C   0  0  1  0  0  0  0  0  0  0  0  0
   11.1820   15.4840   22.0330 C   0  0  0  0  0  0  0  0  0  0  0  0
   11.3390   14.7940   23.3820 C   0  0  0  0  0  0  0  0  0  0  0  0
    9.9970   14.7390   24.1000 C   0  0  0  0  0  0  0  0  0  0  0  0
    8.8140   14.7730   21.9190 C   0  0  0  0  0  0  0  0  0  0  0  0
    8.9470   14.1560   23.2470 N   0  0  0  0  0  0  0  0  0  0  0  0
    8.0990   13.1880   23.6490 C   0  0  0  0  0  0  0  0  0  0  0  0
    7.1840   12.8480   22.9320 O   0  0  0  0  0  0  0  0  0  0  0  0
    8.1490   12.5860   25.1510 C   0  0  2  0  0  0  0  0  0  0  0  0
    7.5310   13.6290   26.0890 C   0  0  0  0  0  0  0  0  0  0  0  0
    9.5330   12.4400   25.5120 O   0  0  0  0  0  0  0  0  0  0  0  0
   10.2600   11.5340   24.6600 C   0  0  0  0  0  0  0  0  0  0  0  0
    9.6980   10.1380   24.7020 C   0  0  0  0  0  0  0  0  0  0  0  0
    8.1940   10.1400   24.4970 C   0  0  0  0  0  0  0  0  0  0  0  0
    7.4920   11.2210   25.3210 C   0  0  0  0  0  0  0  0  0  0  0  0
  2  1  2  0
  3  2  1  0
  4  2  1  6
  5  4  1  0
  6  5  1  0
  7  6  1  0
  8  4  1  0
  9  8  1  0
  9  7  1  0
 10  9  1  0
 11 10  2  0
 12 10  1  0
 12 13  1  1
 14 12  1  0
 15 14  1  0
 16 15  1  0
 17 16  1  0
 18 17  1  0
 18 12  1  0
M  END
>  <id>  (1) 
207422

>  <inchikey>  (1) 
YJRYXQGADMRDQO-GXFFZTMASA-N

>  <alias>  (1) 
A3938a

>  <name>  (1) 
A3938a

>  <smiles>  (1) 
C[C@]1(C(=O)N2CCC[C@H](C(N)=O)C2)CCCCO1

>  <path>  (1) 
/opt/xchem-fragalysis-2/maxwin/2A_HIPPO/A71EV2A_P3only_20241212/aligned_files/A3938a/A3938a.pdb

>  <distance_score>  (1) 
None

>  <energy_score>  (1) 
None

>  <compound>  (1) 
YJRYXQGADMRDQO-UHFFFAOYSA-N

>  <compound_id>  (1) 
122549

>  <target>  (1) 
A71EV2A

$$$$
A71EV2A-x3940_A_201_v2
     RDKit          3D

 21 22  0  0  0  0  0  0  0  0999 V2000
    9.9610   16.9710   19.5070 O   0  0  0  0  0  0  0  0  0  0  0  0
   10.4370   15.8670   19.7840 C   0  0  0  0  0  0  0  0  0  0  0  0
   10.9280   15.0490   18.8690 N   0  0  0  0  0  0  0  0  0  0  0  0
   10.4910   15.3700   21.2180 C   0  0  1  0  0  0  0  0  0  0  0  0
   11.4050   16.2570   22.0770 C   0  0  0  0  0  0  0  0  0  0  0  0
   11.4800   15.7540   23.5210 C   0  0  0  0  0  0  0  0  0  0  0  0
   10.0900   15.6430   24.1230 C   0  0  0  0  0  0  0  0  0  0  0  0
    9.1090   15.3200   21.8780 C   0  0  0  0  0  0  0  0  0  0  0  0
    9.2060   14.8430   23.2620 N   0  0  0  0  0  0  0  0  0  0  0  0
    8.4760   13.7860   23.6830 C   0  0  0  0  0  0  0  0  0  0  0  0
    7.6010   13.2880   22.9930 O   0  0  0  0  0  0  0  0  0  0  0  0
    8.7740   13.2590   25.0750 C   0  0  0  0  0  0  0  0  0  0  0  0
    7.8800   12.1020   25.4580 C   0  0  0  0  0  0  0  0  0  0  0  0
    8.1510   10.8060   25.0090 C   0  0  0  0  0  0  0  0  0  0  0  0
    9.2530   10.6940   24.2040 O   0  0  0  0  0  0  0  0  0  0  0  0
    9.4800    9.4470   23.5480 C   0  0  0  0  0  0  0  0  0  0  0  0
    6.8050   12.2950   26.3220 C   0  0  0  0  0  0  0  0  0  0  0  0
    6.0430   11.2190   26.7260 C   0  0  0  0  0  0  0  0  0  0  0  0
    4.7150   11.4870   27.8220 Cl  0  0  0  0  0  0  0  0  0  0  0  0
    6.3080    9.9430   26.2860 C   0  0  0  0  0  0  0  0  0  0  0  0
    7.3650    9.7340   25.4170 C   0  0  0  0  0  0  0  0  0  0  0  0
  2  1  2  0
  3  2  1  0
  4  2  1  6
  5  4  1  0
  6  5  1  0
  7  6  1  0
  8  4  1  0
  9  8  1  0
  9  7  1  0
 10  9  1  0
 11 10  2  0
 12 10  1  0
 13 12  1  0
 14 13  2  0
 15 14  1  0
 16 15  1  0
 17 13  1  0
 18 17  2  0
 19 18  1  0
 20 18  1  0
 21 20  2  0
 21 14  1  0
M  END
>  <id>  (2) 
207423

>  <inchikey>  (2) 
WOSHQSSTXNWEDB-JTQLQIEISA-N

>  <alias>  (2) 
A3940a

>  <name>  (2) 
A3940a

>  <smiles>  (2) 
COc1ccc(Cl)cc1CC(=O)N1CCC[C@H](C(N)=O)C1

>  <path>  (2) 
/opt/xchem-fragalysis-2/maxwin/2A_HIPPO/A71EV2A_P3only_20241212/aligned_files/A3940a/A3940a.pdb

>  <distance_score>  (2) 
None

>  <energy_score>  (2) 
None

>  <compound>  (2) 
WOSHQSSTXNWEDB-UHFFFAOYSA-N

>  <compound_id>  (2) 
122550

>  <target>  (2) 
A71EV2A

$$$$
A71EV2A-x3990_A_201_v2
     RDKit          3D

 23 24  0  0  0  0  0  0  0  0999 V2000
   11.2210   17.0480   23.3630 F   0  0  0  0  0  0  0  0  0  0  0  0
   11.8040   16.1280   22.5880 C   0  0  0  0  0  0  0  0  0  0  0  0
   12.4270   16.7960   21.6030 F   0  0  0  0  0  0  0  0  0  0  0  0
   12.7560   15.5620   23.3310 F   0  0  0  0  0  0  0  0  0  0  0  0
   10.8240   15.1190   22.0630 C   0  0  2  0  0  0  0  0  0  0  0  0
    9.6760   15.7720   21.2620 C   0  0  1  0  0  0  0  0  0  0  0  0
    9.9630   16.0580   19.8030 C   0  0  0  0  0  0  0  0  0  0  0  0
    9.6850   17.1570   19.3170 O   0  0  0  0  0  0  0  0  0  0  0  0
   10.5090   15.0720   19.0960 N   0  0  0  0  0  0  0  0  0  0  0  0
    8.5340   14.7700   21.4220 C   0  0  0  0  0  0  0  0  0  0  0  0
   10.1170   14.4410   23.2360 C   0  0  0  0  0  0  0  0  0  0  0  0
    8.7570   14.2100   22.7500 N   0  0  0  0  0  0  0  0  0  0  0  0
    7.7810   13.5360   23.3870 C   0  0  0  0  0  0  0  0  0  0  0  0
    6.7540   13.1990   22.8240 O   0  0  0  0  0  0  0  0  0  0  0  0
    8.0380   13.2390   24.8530 C   0  0  0  0  0  0  0  0  0  0  0  0
    7.3120   12.0070   25.3440 C   0  0  0  0  0  0  0  0  0  0  0  0
    7.6170   10.7370   24.8440 C   0  0  0  0  0  0  0  0  0  0  0  0
    8.5960   10.7090   23.8880 O   0  0  0  0  0  0  0  0  0  0  0  0
    9.2960    9.4800   23.6670 C   0  0  0  0  0  0  0  0  0  0  0  0
    6.3320   12.1110   26.3270 C   0  0  0  0  0  0  0  0  0  0  0  0
    5.6690   10.9910   26.7910 C   0  0  0  0  0  0  0  0  0  0  0  0
    5.9690    9.7550   26.2860 C   0  0  0  0  0  0  0  0  0  0  0  0
    6.9460    9.6140   25.3100 C   0  0  0  0  0  0  0  0  0  0  0  0
  2  1  1  0
  3  2  1  0
  4  2  1  0
  5  2  1  1
  6  5  1  0
  6  7  1  6
  8  7  2  0
  9  7  1  0
 10  6  1  0
  5 11  1  0
 12 10  1  0
 12 11  1  0
 13 12  1  0
 14 13  2  0
 15 13  1  0
 16 15  1  0
 17 16  2  0
 18 17  1  0
 19 18  1  0
 20 16  1  0
 21 20  2  0
 22 21  1  0
 23 22  2  0
 23 17  1  0
M  END
>  <id>  (3) 
207424

>  <inchikey>  (3) 
WDWZKNJCYBSIRL-QWRGUYRKSA-N

>  <alias>  (3) 
A3990a

>  <name>  (3) 
A3990a

>  <smiles>  (3) 
COc1ccccc1CC(=O)N1C[C@H](C(N)=O)[C@@H](C(F)(F)F)C1

>  <path>  (3) 
/opt/xchem-fragalysis-2/maxwin/2A_HIPPO/A71EV2A_P3only_20241212/aligned_files/A3990a/A3990a.pdb

>  <distance_score>  (3) 
None

>  <energy_score>  (3) 
None

>  <compound>  (3) 
WDWZKNJCYBSIRL-UHFFFAOYSA-N

>  <compound_id>  (3) 
122551

>  <target>  (3) 
A71EV2A

$$$$
A71EV2A-x4028_A_201_v2
     RDKit          3D

 24 25  0  0  0  0  0  0  0  0999 V2000
    9.6880   16.9440   19.4980 O   0  0  0  0  0  0  0  0  0  0  0  0
   10.1070   15.7970   19.7110 C   0  0  0  0  0  0  0  0  0  0  0  0
   10.5280   14.9930   18.7480 N   0  0  0  0  0  0  0  0  0  0  0  0
   10.1920   15.2450   21.1250 C   0  0  1  0  0  0  0  0  0  0  0  0
   11.1940   16.0500   21.9720 C   0  0  0  0  0  0  0  0  0  0  0  0
   11.2550   15.5620   23.4250 C   0  0  0  0  0  0  0  0  0  0  0  0
    9.8690   15.5100   24.0400 C   0  0  0  0  0  0  0  0  0  0  0  0
    8.8310   15.3240   21.8200 C   0  0  0  0  0  0  0  0  0  0  0  0
    8.9410   14.7690   23.1720 N   0  0  0  0  0  0  0  0  0  0  0  0
    8.2380   13.6700   23.5180 C   0  0  0  0  0  0  0  0  0  0  0  0
    7.4010   13.1760   22.7790 O   0  0  0  0  0  0  0  0  0  0  0  0
    8.5340   13.0950   24.8910 C   0  0  0  0  0  0  0  0  0  0  0  0
    7.5990   11.9670   25.2590 C   0  0  0  0  0  0  0  0  0  0  0  0
    7.8520   10.6680   24.8160 C   0  0  0  0  0  0  0  0  0  0  0  0
    8.9600   10.5380   24.0220 O   0  0  0  0  0  0  0  0  0  0  0  0
    9.2840    9.2280   23.5290 C   0  0  0  0  0  0  0  0  0  0  0  0
    6.5330   12.1690   26.1350 C   0  0  0  0  0  0  0  0  0  0  0  0
    5.7310   11.1240   26.5810 C   0  0  0  0  0  0  0  0  0  0  0  0
    4.5980   11.3900   27.5240 C   0  0  0  0  0  0  0  0  0  0  0  0
    5.0090   11.6410   28.7420 F   0  0  0  0  0  0  0  0  0  0  0  0
    3.7380   10.3840   27.6430 F   0  0  0  0  0  0  0  0  0  0  0  0
    3.8640   12.4200   27.1810 F   0  0  0  0  0  0  0  0  0  0  0  0
    6.0130    9.8400   26.1330 C   0  0  0  0  0  0  0  0  0  0  0  0
    7.0600    9.6110   25.2500 C   0  0  0  0  0  0  0  0  0  0  0  0
  2  1  2  0
  3  2  1  0
  4  2  1  6
  5  4  1  0
  6  5  1  0
  7  6  1  0
  8  4  1  0
  9  8  1  0
  9  7  1  0
 10  9  1  0
 11 10  2  0
 12 10  1  0
 13 12  1  0
 14 13  2  0
 15 14  1  0
 16 15  1  0
 17 13  1  0
 18 17  2  0
 19 18  1  0
 19 20  1  0
 21 19  1  0
 22 19  1  0
 23 18  1  0
 24 23  2  0
 24 14  1  0
M  END
>  <id>  (4) 
207425

>  <inchikey>  (4) 
PQPPRBLQDZEENG-JTQLQIEISA-N

>  <alias>  (4) 
A4028a

>  <name>  (4) 
A4028a

>  <smiles>  (4) 
COc1ccc(C(F)(F)F)cc1CC(=O)N1CCC[C@H](C(N)=O)C1

>  <path>  (4) 
/opt/xchem-fragalysis-2/maxwin/2A_HIPPO/A71EV2A_P3only_20241212/aligned_files/A4028a/A4028a.pdb

>  <distance_score>  (4) 
None

>  <energy_score>  (4) 
None

>  <compound>  (4) 
PQPPRBLQDZEENG-UHFFFAOYSA-N

>  <compound_id>  (4) 
122552

>  <target>  (4) 
A71EV2A

$$$$
A71EV2A-x4032_A_201_v2
     RDKit          3D

 20 21  0  0  0  0  0  0  0  0999 V2000
    9.9300   16.8860   19.3510 O   0  0  0  0  0  0  0  0  0  0  0  0
   10.5680   15.8420   19.5270 C   0  0  0  0  0  0  0  0  0  0  0  0
   10.6330   14.8770   18.6270 N   0  0  0  0  0  0  0  0  0  0  0  0
   11.3320   15.6100   20.8070 C   0  0  0  0  0  0  0  0  0  0  0  0
   10.5130   15.8340   22.0690 C   0  0  2  0  0  0  0  0  0  0  0  0
   11.3810   15.2760   23.2070 C   0  0  0  0  0  0  0  0  0  0  0  0
   10.4080   14.7320   24.2290 C   0  0  0  0  0  0  0  0  0  0  0  0
    9.2330   14.9800   22.1060 C   0  0  0  0  0  0  0  0  0  0  0  0
    9.2480   14.3400   23.4200 N   0  0  0  0  0  0  0  0  0  0  0  0
    8.2490   13.5270   23.7980 C   0  0  0  0  0  0  0  0  0  0  0  0
    7.2430   13.3680   23.1200 O   0  0  0  0  0  0  0  0  0  0  0  0
    8.4330   12.8770   25.1560 C   0  0  0  0  0  0  0  0  0  0  0  0
    7.4230   11.7810   25.3930 C   0  0  0  0  0  0  0  0  0  0  0  0
    7.6470   10.5010   24.8820 C   0  0  0  0  0  0  0  0  0  0  0  0
    8.6870   10.4070   23.9880 O   0  0  0  0  0  0  0  0  0  0  0  0
    9.1390    9.1090   23.6080 C   0  0  0  0  0  0  0  0  0  0  0  0
    6.3160   11.9890   26.2120 C   0  0  0  0  0  0  0  0  0  0  0  0
    5.4730   10.9430   26.5430 C   0  0  0  0  0  0  0  0  0  0  0  0
    5.7230    9.6840   26.0630 C   0  0  0  0  0  0  0  0  0  0  0  0
    6.8050    9.4550   25.2220 C   0  0  0  0  0  0  0  0  0  0  0  0
  2  1  2  0
  3  2  1  0
  4  2  1  0
  5  4  1  6
  6  5  1  0
  7  6  1  0
  8  5  1  0
  9  8  1  0
  9  7  1  0
 10  9  1  0
 11 10  2  0
 12 10  1  0
 13 12  1  0
 14 13  2  0
 15 14  1  0
 16 15  1  0
 17 13  1  0
 18 17  2  0
 19 18  1  0
 20 19  2  0
 20 14  1  0
M  END
>  <id>  (5) 
207426

>  <inchikey>  (5) 
MSPWRYALONZABD-NSHDSACASA-N

>  <alias>  (5) 
A4032a

>  <name>  (5) 
A4032a

>  <smiles>  (5) 
COc1ccccc1CC(=O)N1CC[C@@H](CC(N)=O)C1

>  <path>  (5) 
/opt/xchem-fragalysis-2/maxwin/2A_HIPPO/A71EV2A_P3only_20241212/aligned_files/A4032a/A4032a_hippo.pdb

>  <distance_score>  (5) 
None

>  <energy_score>  (5) 
None

>  <compound>  (5) 
MSPWRYALONZABD-UHFFFAOYSA-N

>  <compound_id>  (5) 
122466

>  <target>  (5) 
A71EV2A

$$$$
A71EV2A-x4035_A_201_v2
     RDKit          3D

 21 22  0  0  0  0  0  0  0  0999 V2000
    9.7760   16.8760   19.6090 O   0  0  0  0  0  0  0  0  0  0  0  0
   10.1910   15.7280   19.8000 C   0  0  0  0  0  0  0  0  0  0  0  0
   10.6360   14.9520   18.8270 N   0  0  0  0  0  0  0  0  0  0  0  0
   10.2100   15.1210   21.1950 C   0  0  1  0  0  0  0  0  0  0  0  0
   11.2880   15.7650   22.0790 C   0  0  0  0  0  0  0  0  0  0  0  0
   11.2640   15.1910   23.4990 C   0  0  0  0  0  0  0  0  0  0  0  0
    9.8680   15.3080   24.1070 C   0  0  0  0  0  0  0  0  0  0  0  0
    8.8380   15.3220   21.8530 C   0  0  0  0  0  0  0  0  0  0  0  0
    8.8380   14.7600   23.2060 N   0  0  0  0  0  0  0  0  0  0  0  0
    8.0070   13.7100   23.4950 C   0  0  0  0  0  0  0  0  0  0  0  0
    7.2270   13.2570   22.6740 O   0  0  0  0  0  0  0  0  0  0  0  0
    8.0900   13.2120   24.7510 N   0  0  0  0  0  0  0  0  0  0  0  0
    7.2700   12.1190   25.1540 C   0  0  0  0  0  0  0  0  0  0  0  0
    7.6020   10.8050   24.7750 C   0  0  0  0  0  0  0  0  0  0  0  0
    8.6780   10.6940   23.9290 O   0  0  0  0  0  0  0  0  0  0  0  0
    9.1510    9.3850   23.6000 C   0  0  0  0  0  0  0  0  0  0  0  0
    6.1750   12.3100   25.9960 C   0  0  0  0  0  0  0  0  0  0  0  0
    5.6700   13.9150   26.4210 Cl  0  0  0  0  0  0  0  0  0  0  0  0
    5.4480   11.2500   26.4940 C   0  0  0  0  0  0  0  0  0  0  0  0
    5.8020    9.9620   26.1340 C   0  0  0  0  0  0  0  0  0  0  0  0
    6.8630    9.7340   25.2680 C   0  0  0  0  0  0  0  0  0  0  0  0
  2  1  2  0
  3  2  1  0
  4  2  1  6
  5  4  1  0
  6  5  1  0
  7  6  1  0
  8  4  1  0
  9  8  1  0
  9  7  1  0
 10  9  1  0
 11 10  2  0
 12 10  1  0
 13 12  1  0
 14 13  2  0
 15 14  1  0
 16 15  1  0
 17 13  1  0
 18 17  1  0
 19 17  2  0
 20 19  1  0
 21 20  2  0
 21 14  1  0
M  END
>  <id>  (6) 
207427

>  <inchikey>  (6) 
BAWQVTYFUSCRSF-VIFPVBQESA-N

>  <alias>  (6) 
A4035a

>  <name>  (6) 
A4035a

>  <smiles>  (6) 
COc1cccc(Cl)c1NC(=O)N1CCC[C@H](C(N)=O)C1

>  <path>  (6) 
/opt/xchem-fragalysis-2/maxwin/2A_HIPPO/A71EV2A_P3only_20241212/aligned_files/A4035a/A4035a_hippo.pdb

>  <distance_score>  (6) 
None

>  <energy_score>  (6) 
None

>  <compound>  (6) 
BAWQVTYFUSCRSF-UHFFFAOYSA-N

>  <compound_id>  (6) 
122457

>  <target>  (6) 
A71EV2A

$$$$
A71EV2A-x4202_A_201_v2
     RDKit          3D

 21 23  0  0  0  0  0  0  0  0999 V2000
    9.2960   10.4560   23.8020 Br  0  0  0  0  0  0  0  0  0  0  0  0
    7.7160   10.7520   24.8160 C   0  0  0  0  0  0  0  0  0  0  0  0
    6.9690    9.6570   25.2170 C   0  0  0  0  0  0  0  0  0  0  0  0
    5.8290    9.8620   25.9850 C   0  0  0  0  0  0  0  0  0  0  0  0
    5.4460   11.1400   26.3370 C   0  0  0  0  0  0  0  0  0  0  0  0
    7.3490   12.0400   25.1680 C   0  0  0  0  0  0  0  0  0  0  0  0
    6.1960   12.2300   25.9170 C   0  0  0  0  0  0  0  0  0  0  0  0
    5.9400   13.6930   26.1520 C   0  0  0  0  0  0  0  0  0  0  0  0
    7.3060   14.3250   25.8680 C   0  0  0  0  0  0  0  0  0  0  0  0
    8.0740   13.3370   24.9260 C   0  0  2  0  0  0  0  0  0  0  0  0
    8.0420   13.7670   23.4590 C   0  0  0  0  0  0  0  0  0  0  0  0
    7.2460   13.2830   22.6730 O   0  0  0  0  0  0  0  0  0  0  0  0
    8.8780   14.7560   23.0800 N   0  0  0  0  0  0  0  0  0  0  0  0
    9.8460   15.4220   23.9740 C   0  0  0  0  0  0  0  0  0  0  0  0
   11.2550   15.3820   23.4270 C   0  0  0  0  0  0  0  0  0  0  0  0
   11.2890   15.9520   22.0090 C   0  0  0  0  0  0  0  0  0  0  0  0
    8.8630   15.2730   21.7080 C   0  0  0  0  0  0  0  0  0  0  0  0
   10.2800   15.2000   21.1250 C   0  0  1  0  0  0  0  0  0  0  0  0
   10.2630   15.7510   19.7100 C   0  0  0  0  0  0  0  0  0  0  0  0
    9.8710   16.8960   19.4760 O   0  0  0  0  0  0  0  0  0  0  0  0
   10.6350   14.9120   18.7530 N   0  0  0  0  0  0  0  0  0  0  0  0
  2  1  1  0
  3  2  2  0
  4  3  1  0
  5  4  2  0
  6  2  1  0
  7  5  1  0
  7  6  2  0
  8  7  1  0
  9  8  1  0
 10  9  1  0
 10  6  1  0
 10 11  1  6
 12 11  2  0
 13 11  1  0
 14 13  1  0
 15 14  1  0
 16 15  1  0
 17 13  1  0
 18 17  1  0
 18 16  1  0
 18 19  1  6
 20 19  2  0
 21 19  1  0
M  END
>  <id>  (7) 
207428

>  <inchikey>  (7) 
AXUVEMNCADPROP-RYUDHWBXSA-N

>  <alias>  (7) 
A4202a

>  <name>  (7) 
A4202a

>  <smiles>  (7) 
NC(=O)[C@H]1CCCN(C(=O)[C@H]2CCc3cccc(Br)c32)C1

>  <path>  (7) 
/opt/xchem-fragalysis-2/maxwin/2A_HIPPO/A71EV2A_P3only_20241212/aligned_files/A4202a/A4202a_hippo.pdb

>  <distance_score>  (7) 
None

>  <energy_score>  (7) 
None

>  <compound>  (7) 
AXUVEMNCADPROP-UHFFFAOYSA-N

>  <compound_id>  (7) 
122553

>  <target>  (7) 
A71EV2A

$$$$
A71EV2A-x4203_A_201_v2
     RDKit          3D

 21 22  0  0  0  0  0  0  0  0999 V2000
    9.8640   16.8350   19.4930 O   0  0  0  0  0  0  0  0  0  0  0  0
   10.3030   15.7010   19.7000 C   0  0  0  0  0  0  0  0  0  0  0  0
   10.6850   14.8910   18.7270 N   0  0  0  0  0  0  0  0  0  0  0  0
   10.4320   15.1520   21.1120 C   0  0  1  0  0  0  0  0  0  0  0  0
   11.5520   15.8610   21.8900 C   0  0  0  0  0  0  0  0  0  0  0  0
   11.7000   15.3040   23.3100 C   0  0  0  0  0  0  0  0  0  0  0  0
   10.3760   15.3430   24.0460 C   0  0  0  0  0  0  0  0  0  0  0  0
    9.1370   15.2590   21.9200 C   0  0  0  0  0  0  0  0  0  0  0  0
    9.3360   14.6740   23.2500 N   0  0  0  0  0  0  0  0  0  0  0  0
    8.6110   13.6090   23.6490 C   0  0  0  0  0  0  0  0  0  0  0  0
    7.7370   13.1240   22.9490 O   0  0  0  0  0  0  0  0  0  0  0  0
    8.9320   13.0470   25.0210 C   0  0  0  0  0  0  0  0  0  0  0  0
    7.9290   12.0080   25.4690 C   0  0  0  0  0  0  0  0  0  0  0  0
    8.0180   10.6800   25.0360 C   0  0  0  0  0  0  0  0  0  0  0  0
    9.0190   10.4310   24.1340 O   0  0  0  0  0  0  0  0  0  0  0  0
    9.2230    9.0850   23.7140 C   0  0  0  0  0  0  0  0  0  0  0  0
    6.9090   12.3440   26.3520 C   0  0  0  0  0  0  0  0  0  0  0  0
    5.9960   11.4070   26.7870 C   0  0  0  0  0  0  0  0  0  0  0  0
    6.0990   10.1200   26.3340 C   0  0  0  0  0  0  0  0  0  0  0  0
    4.8300    8.9930   26.7050 Cl  0  0  0  0  0  0  0  0  0  0  0  0
    7.1150    9.7270   25.4860 C   0  0  0  0  0  0  0  0  0  0  0  0
  2  1  2  0
  3  2  1  0
  4  2  1  6
  5  4  1  0
  6  5  1  0
  7  6  1  0
  8  4  1  0
  9  8  1  0
  9  7  1  0
 10  9  1  0
 11 10  2  0
 12 10  1  0
 13 12  1  0
 14 13  2  0
 15 14  1  0
 16 15  1  0
 17 13  1  0
 18 17  2  0
 19 18  1  0
 20 19  1  0
 21 19  2  0
 21 14  1  0
M  END
>  <id>  (8) 
207429

>  <inchikey>  (8) 
RXCDGQVWMAQTNG-NSHDSACASA-N

>  <alias>  (8) 
A4203a

>  <name>  (8) 
A4203a

>  <smiles>  (8) 
COc1cc(Cl)ccc1CC(=O)N1CCC[C@H](C(N)=O)C1

>  <path>  (8) 
/opt/xchem-fragalysis-2/maxwin/2A_HIPPO/A71EV2A_P3only_20241212/aligned_files/A4203a/A4203a.pdb

>  <distance_score>  (8) 
None

>  <energy_score>  (8) 
None

>  <compound>  (8) 
RXCDGQVWMAQTNG-UHFFFAOYSA-N

>  <compound_id>  (8) 
122554

>  <target>  (8) 
A71EV2A

$$$$
A71EV2A-x4207_A_201_v2
     RDKit          3D

 24 25  0  0  0  0  0  0  0  0999 V2000
   10.4440   14.7220   18.9560 O   0  0  0  0  0  0  0  0  0  0  0  0
   10.2000   15.4800   19.9020 C   0  0  0  0  0  0  0  0  0  0  0  0
    9.7370   16.7030   19.7360 N   0  0  0  0  0  0  0  0  0  0  0  0
   10.4670   15.0560   21.3360 C   0  0  1  0  0  0  0  0  0  0  0  0
   11.6200   15.8650   21.9550 C   0  0  0  0  0  0  0  0  0  0  0  0
   11.8770   15.4310   23.3970 C   0  0  0  0  0  0  0  0  0  0  0  0
   10.6080   15.5580   24.2230 C   0  0  0  0  0  0  0  0  0  0  0  0
    9.2110   15.1790   22.2060 C   0  0  0  0  0  0  0  0  0  0  0  0
    9.5050   14.8110   23.5970 N   0  0  0  0  0  0  0  0  0  0  0  0
    8.7980   13.9120   24.3210 C   0  0  0  0  0  0  0  0  0  0  0  0
    9.1140   13.6210   25.4650 O   0  0  0  0  0  0  0  0  0  0  0  0
    7.5090   13.3160   23.7130 C   0  0  2  0  0  0  0  0  0  0  0  0
    6.5050   14.3690   23.5920 N   0  0  0  0  0  0  0  0  0  0  0  0
    5.6450   14.4590   22.5670 C   0  0  0  0  0  0  0  0  0  0  0  0
    5.6110   13.6200   21.6680 O   0  0  0  0  0  0  0  0  0  0  0  0
    4.7450   15.6600   22.5700 C   0  0  0  0  0  0  0  0  0  0  0  0
    7.0080   12.1880   24.6070 C   0  0  0  0  0  0  0  0  0  0  0  0
    7.5120   10.8970   24.4490 C   0  0  0  0  0  0  0  0  0  0  0  0
    8.5170   10.7740   23.5260 O   0  0  0  0  0  0  0  0  0  0  0  0
    9.2530    9.5400   23.4830 C   0  0  0  0  0  0  0  0  0  0  0  0
    5.9910   12.3860   25.5400 C   0  0  0  0  0  0  0  0  0  0  0  0
    5.4730   11.3260   26.2700 C   0  0  0  0  0  0  0  0  0  0  0  0
    5.9600   10.0520   26.0780 C   0  0  0  0  0  0  0  0  0  0  0  0
    6.9870    9.8290   25.1730 C   0  0  0  0  0  0  0  0  0  0  0  0
  2  1  2  0
  3  2  1  0
  4  2  1  6
  5  4  1  0
  6  5  1  0
  7  6  1  0
  8  4  1  0
  9  8  1  0
  9  7  1  0
 10  9  1  0
 11 10  2  0
 12 10  1  0
 12 13  1  1
 14 13  1  0
 15 14  2  0
 16 14  1  0
 17 12  1  0
 18 17  2  0
 19 18  1  0
 20 19  1  0
 21 17  1  0
 22 21  2  0
 23 22  1  0
 24 23  2  0
 24 18  1  0
M  END
>  <id>  (9) 
207430

>  <inchikey>  (9) 
KEZJHWCQWSCOQQ-SWLSCSKDSA-N

>  <alias>  (9) 
A4207a

>  <name>  (9) 
A4207a

>  <smiles>  (9) 
COc1ccccc1[C@@H](NC(C)=O)C(=O)N1CCC[C@H](C(N)=O)C1

>  <path>  (9) 
/opt/xchem-fragalysis-2/maxwin/2A_HIPPO/A71EV2A_P3only_20241212/aligned_files/A4207a/A4207a_hippo.pdb

>  <distance_score>  (9) 
None

>  <energy_score>  (9) 
None

>  <compound>  (9) 
KEZJHWCQWSCOQQ-UHFFFAOYSA-N

>  <compound_id>  (9) 
122555

>  <target>  (9) 
A71EV2A

$$$$
A71EV2A-x4237_A_201_v2
     RDKit          3D

 26 28  0  0  0  0  0  0  0  0999 V2000
    6.3360   18.9570   27.3740 F   0  0  0  0  0  0  0  0  0  0  0  0
    6.3780   17.6600   26.9740 C   0  0  0  0  0  0  0  0  0  0  0  0
    6.9710   16.7400   27.7900 C   0  0  0  0  0  0  0  0  0  0  0  0
    7.0320   15.4260   27.3600 C   0  0  0  0  0  0  0  0  0  0  0  0
    5.8350   17.3350   25.7660 C   0  0  0  0  0  0  0  0  0  0  0  0
    5.9080   16.0180   25.3500 C   0  0  0  0  0  0  0  0  0  0  0  0
    6.5080   15.0470   26.1350 C   0  0  0  0  0  0  0  0  0  0  0  0
    6.5900   13.6150   25.6630 C   0  0  0  0  0  0  0  0  0  0  0  0
    7.8950   13.3010   24.8960 C   0  0  1  0  0  0  0  0  0  0  0  0
    8.1380   11.8240   24.6340 C   0  0  0  0  0  0  0  0  0  0  0  0
    7.3080   10.8460   25.1600 C   0  0  0  0  0  0  0  0  0  0  0  0
    7.5870    9.5060   24.9600 C   0  0  0  0  0  0  0  0  0  0  0  0
    8.7010    9.1290   24.2420 C   0  0  0  0  0  0  0  0  0  0  0  0
    9.5120   10.0850   23.6920 C   0  0  0  0  0  0  0  0  0  0  0  0
    9.2320   11.4270   23.8800 C   0  0  0  0  0  0  0  0  0  0  0  0
    7.8290   13.8820   23.4860 C   0  0  0  0  0  0  0  0  0  0  0  0
    7.0350   13.4310   22.6760 O   0  0  0  0  0  0  0  0  0  0  0  0
    8.6820   14.8760   23.1600 N   0  0  0  0  0  0  0  0  0  0  0  0
    9.6890   15.4740   24.0530 C   0  0  0  0  0  0  0  0  0  0  0  0
   11.0960   15.3150   23.4820 C   0  0  0  0  0  0  0  0  0  0  0  0
   11.1600   15.8130   22.0370 C   0  0  0  0  0  0  0  0  0  0  0  0
    8.7000   15.4340   21.8070 C   0  0  0  0  0  0  0  0  0  0  0  0
   10.0660   15.1650   21.1740 C   0  0  1  0  0  0  0  0  0  0  0  0
   10.0890   15.6960   19.7510 C   0  0  0  0  0  0  0  0  0  0  0  0
    9.7490   16.8550   19.4970 O   0  0  0  0  0  0  0  0  0  0  0  0
   10.4630   14.8350   18.8200 N   0  0  0  0  0  0  0  0  0  0  0  0
  2  1  1  0
  3  2  2  0
  4  3  1  0
  5  2  1  0
  6  5  2  0
  7  6  1  0
  7  4  2  0
  8  7  1  0
  9  8  1  6
 10  9  1  0
 11 10  2  0
 12 11  1  0
 13 12  2  0
 14 13  1  0
 15 14  2  0
 15 10  1  0
 16  9  1  0
 17 16  2  0
 18 16  1  0
 19 18  1  0
 20 19  1  0
 21 20  1  0
 22 18  1  0
 23 22  1  0
 23 21  1  0
 23 24  1  6
 25 24  2  0
 26 24  1  0
M  END
>  <id>  (10) 
207431

>  <inchikey>  (10) 
BJVLTIUJQBTOEQ-HKUYNNGSSA-N

>  <alias>  (10) 
A4237a

>  <name>  (10) 
A4237a

>  <smiles>  (10) 
NC(=O)[C@H]1CCCN(C(=O)[C@@H](Cc2ccc(F)cc2)c2ccccc2)C1

>  <path>  (10) 
/opt/xchem-fragalysis-2/maxwin/2A_HIPPO/A71EV2A_P3only_20241212/aligned_files/A4237a/A4237a_hippo.pdb

>  <distance_score>  (10) 
None

>  <energy_score>  (10) 
None

>  <compound>  (10) 
BJVLTIUJQBTOEQ-UHFFFAOYSA-N

>  <compound_id>  (10) 
122556

>  <target>  (10) 
A71EV2A

$$$$
A71EV2A-x4260_A_201_v2
     RDKit          3D

 22 24  0  0  0  0  0  0  0  0999 V2000
    9.3340    8.9430   23.5270 Cl  0  0  0  0  0  0  0  0  0  0  0  0
    8.3300   10.0420   24.4360 C   0  0  0  0  0  0  0  0  0  0  0  0
    7.3410    9.5400   25.2480 C   0  0  0  0  0  0  0  0  0  0  0  0
    6.5320   10.4160   25.9520 C   0  0  0  0  0  0  0  0  0  0  0  0
    8.5360   11.3980   24.3010 C   0  0  0  0  0  0  0  0  0  0  0  0
    7.7200   12.2980   24.9880 C   0  0  0  0  0  0  0  0  0  0  0  0
    6.7100   11.7850   25.8020 C   0  0  0  0  0  0  0  0  0  0  0  0
    5.7730   12.5820   26.4100 O   0  0  0  0  0  0  0  0  0  0  0  0
    6.2420   13.9130   26.7570 C   0  0  0  0  0  0  0  0  0  0  0  0
    6.8520   14.6560   25.5970 C   0  0  0  0  0  0  0  0  0  0  0  0
    7.9270   13.7970   24.8790 C   0  0  2  0  0  0  0  0  0  0  0  0
    7.9790   14.1490   23.3930 C   0  0  0  0  0  0  0  0  0  0  0  0
    7.2810   13.5460   22.5960 O   0  0  0  0  0  0  0  0  0  0  0  0
    8.7680   15.1770   23.0040 N   0  0  0  0  0  0  0  0  0  0  0  0
    9.7360   15.9020   23.8460 C   0  0  0  0  0  0  0  0  0  0  0  0
   11.1380   15.8430   23.2570 C   0  0  0  0  0  0  0  0  0  0  0  0
   11.1340   16.2770   21.7890 C   0  0  0  0  0  0  0  0  0  0  0  0
    8.7100   15.6900   21.6330 C   0  0  0  0  0  0  0  0  0  0  0  0
   10.0800   15.5080   20.9820 C   0  0  1  0  0  0  0  0  0  0  0  0
   10.1200   15.8890   19.5120 C   0  0  0  0  0  0  0  0  0  0  0  0
   10.3840   15.0510   18.6480 O   0  0  0  0  0  0  0  0  0  0  0  0
    9.8610   17.1530   19.2300 N   0  0  0  0  0  0  0  0  0  0  0  0
  2  1  1  0
  3  2  2  0
  4  3  1  0
  5  2  1  0
  6  5  2  0
  7  4  2  0
  7  6  1  0
  8  7  1  0
  9  8  1  0
 10  9  1  0
 11 10  1  0
 11  6  1  0
 11 12  1  6
 13 12  2  0
 14 12  1  0
 15 14  1  0
 16 15  1  0
 17 16  1  0
 18 14  1  0
 19 18  1  0
 19 17  1  0
 19 20  1  6
 21 20  2  0
 22 20  1  0
M  END
>  <id>  (11) 
207432

>  <inchikey>  (11) 
BPTVIAUUXZRLLA-JQWIXIFHSA-N

>  <alias>  (11) 
A4260a

>  <name>  (11) 
A4260a

>  <smiles>  (11) 
NC(=O)[C@H]1CCCN(C(=O)[C@H]2CCOc3ccc(Cl)cc32)C1

>  <path>  (11) 
/opt/xchem-fragalysis-2/maxwin/2A_HIPPO/A71EV2A_P3only_20241212/aligned_files/A4260a/A4260a.pdb

>  <distance_score>  (11) 
None

>  <energy_score>  (11) 
None

>  <compound>  (11) 
BPTVIAUUXZRLLA-UHFFFAOYSA-N

>  <compound_id>  (11) 
122557

>  <target>  (11) 
A71EV2A

$$$$
A71EV2A-x4291_A_201_v2
     RDKit          3D

 21 22  0  0  0  0  0  0  0  0999 V2000
    8.6530    9.9130   24.3090 O   0  0  0  0  0  0  0  0  0  0  0  0
    7.7620   10.5030   24.9580 C   0  0  0  0  0  0  0  0  0  0  0  0
    6.7100    9.7940   25.5280 N   0  0  0  0  0  0  0  0  0  0  0  0
    5.7000   10.3610   26.2630 C   0  0  0  0  0  0  0  0  0  0  0  0
    4.6160    9.4580   26.7650 C   0  0  0  0  0  0  0  0  0  0  0  0
    7.7340   11.9270   25.1930 C   0  0  0  0  0  0  0  0  0  0  0  0
    6.7200   12.5100   25.9420 C   0  0  0  0  0  0  0  0  0  0  0  0
    6.6560   13.9590   26.3050 C   0  0  0  0  0  0  0  0  0  0  0  0
    5.7090   11.6990   26.4630 C   0  0  0  0  0  0  0  0  0  0  0  0
    8.8670   12.7510   24.6340 C   0  0  0  0  0  0  0  0  0  0  0  0
    8.4680   13.5360   23.4000 C   0  0  0  0  0  0  0  0  0  0  0  0
    7.5340   13.1770   22.7150 O   0  0  0  0  0  0  0  0  0  0  0  0
    9.1970   14.6290   23.0880 N   0  0  0  0  0  0  0  0  0  0  0  0
    9.0400   15.2940   21.7910 C   0  0  0  0  0  0  0  0  0  0  0  0
   10.3410   15.1490   20.9960 C   0  0  1  0  0  0  0  0  0  0  0  0
   10.2610   15.6900   19.5790 C   0  0  0  0  0  0  0  0  0  0  0  0
    9.8230   16.8260   19.3540 O   0  0  0  0  0  0  0  0  0  0  0  0
   10.6480   14.8540   18.6160 N   0  0  0  0  0  0  0  0  0  0  0  0
   11.4780   15.7910   21.8150 C   0  0  0  0  0  0  0  0  0  0  0  0
   11.5960   15.1290   23.1910 C   0  0  0  0  0  0  0  0  0  0  0  0
   10.2660   15.1800   23.9330 C   0  0  0  0  0  0  0  0  0  0  0  0
  2  1  2  0
  3  2  1  0
  4  3  1  0
  5  4  1  0
  6  2  1  0
  7  6  2  0
  8  7  1  0
  9  4  2  0
  9  7  1  0
 10  6  1  0
 11 10  1  0
 12 11  2  0
 13 11  1  0
 14 13  1  0
 15 14  1  0
 15 16  1  6
 17 16  2  0
 18 16  1  0
 19 15  1  0
 20 19  1  0
 21 13  1  0
 21 20  1  0
M  END
>  <id>  (12) 
207433

>  <inchikey>  (12) 
BAOPJNLBCKGSSV-NSHDSACASA-N

>  <alias>  (12) 
A4291a

>  <name>  (12) 
A4291a

>  <smiles>  (12) 
Cc1cc(C)c(CC(=O)N2CCC[C@H](C(N)=O)C2)c(=O)[nH]1

>  <path>  (12) 
/opt/xchem-fragalysis-2/maxwin/2A_HIPPO/A71EV2A_P3only_20241212/aligned_files/A4291a/A4291a.pdb

>  <distance_score>  (12) 
None

>  <energy_score>  (12) 
None

>  <compound>  (12) 
BAOPJNLBCKGSSV-UHFFFAOYSA-N

>  <compound_id>  (12) 
122558

>  <target>  (12) 
A71EV2A

$$$$
A71EV2A-x4292_A_201_v2
     RDKit          3D

 22 23  0  0  0  0  0  0  0  0999 V2000
    9.5540   10.9600   23.1420 F   0  0  0  0  0  0  0  0  0  0  0  0
    9.2650   10.1580   24.1730 C   0  0  0  0  0  0  0  0  0  0  0  0
   10.3330   10.1780   24.9570 F   0  0  0  0  0  0  0  0  0  0  0  0
    9.2110    8.9060   23.6630 F   0  0  0  0  0  0  0  0  0  0  0  0
    8.0080   10.5710   24.9050 C   0  0  0  0  0  0  0  0  0  0  0  0
    7.0860    9.5890   25.2470 C   0  0  0  0  0  0  0  0  0  0  0  0
    5.9590    9.9590   25.9640 C   0  0  0  0  0  0  0  0  0  0  0  0
    5.6860   11.2150   26.3260 N   0  0  0  0  0  0  0  0  0  0  0  0
    6.5720   12.1460   25.9730 C   0  0  0  0  0  0  0  0  0  0  0  0
    7.7370   11.8970   25.2720 C   0  0  0  0  0  0  0  0  0  0  0  0
    8.7080   13.0120   24.9430 C   0  0  0  0  0  0  0  0  0  0  0  0
    8.4090   13.6520   23.5980 C   0  0  0  0  0  0  0  0  0  0  0  0
    7.4970   13.2510   22.8980 O   0  0  0  0  0  0  0  0  0  0  0  0
    9.1790   14.6980   23.2290 N   0  0  0  0  0  0  0  0  0  0  0  0
   10.1830   15.3650   24.0700 C   0  0  0  0  0  0  0  0  0  0  0  0
   11.5590   15.2800   23.4220 C   0  0  0  0  0  0  0  0  0  0  0  0
   11.5270   15.7880   21.9740 C   0  0  0  0  0  0  0  0  0  0  0  0
    9.0620   15.2860   21.8900 C   0  0  0  0  0  0  0  0  0  0  0  0
   10.3930   15.1410   21.1390 C   0  0  1  0  0  0  0  0  0  0  0  0
   10.2970   15.7460   19.7460 C   0  0  0  0  0  0  0  0  0  0  0  0
    9.8860   16.9040   19.5770 O   0  0  0  0  0  0  0  0  0  0  0  0
   10.6100   14.9480   18.7360 N   0  0  0  0  0  0  0  0  0  0  0  0
  2  1  1  0
  3  2  1  0
  4  2  1  0
  5  2  1  0
  6  5  2  0
  7  6  1  0
  8  7  2  0
  9  8  1  0
 10  5  1  0
 10  9  2  0
 11 10  1  0
 12 11  1  0
 13 12  2  0
 14 12  1  0
 15 14  1  0
 16 15  1  0
 17 16  1  0
 18 14  1  0
 19 18  1  0
 19 17  1  0
 19 20  1  6
 21 20  2  0
 22 20  1  0
M  END
>  <id>  (13) 
207434

>  <inchikey>  (13) 
YLPGSMZMXYJENJ-VIFPVBQESA-N

>  <alias>  (13) 
A4292a

>  <name>  (13) 
A4292a

>  <smiles>  (13) 
NC(=O)[C@H]1CCCN(C(=O)Cc2cnccc2C(F)(F)F)C1

>  <path>  (13) 
/opt/xchem-fragalysis-2/maxwin/2A_HIPPO/A71EV2A_P3only_20241212/aligned_files/A4292a/A4292a.pdb

>  <distance_score>  (13) 
None

>  <energy_score>  (13) 
None

>  <compound>  (13) 
YLPGSMZMXYJENJ-UHFFFAOYSA-N

>  <compound_id>  (13) 
122559

>  <target>  (13) 
A71EV2A

$$$$
A71EV2A-x4304_A_201_v2
     RDKit          3D

 25 26  0  0  0  0  0  0  0  0999 V2000
    9.8230   17.1050   19.6880 O   0  0  0  0  0  0  0  0  0  0  0  0
   10.1400   15.9200   19.7770 C   0  0  0  0  0  0  0  0  0  0  0  0
   10.4390   15.1800   18.7230 N   0  0  0  0  0  0  0  0  0  0  0  0
   10.2080   15.2240   21.1250 C   0  0  1  0  0  0  0  0  0  0  0  0
   11.2240   15.9130   22.0490 C   0  0  0  0  0  0  0  0  0  0  0  0
   11.2570   15.2730   23.4410 C   0  0  0  0  0  0  0  0  0  0  0  0
    9.8650   15.2330   24.0490 C   0  0  0  0  0  0  0  0  0  0  0  0
    8.8360   15.2310   21.8110 C   0  0  0  0  0  0  0  0  0  0  0  0
    8.9120   14.5920   23.1290 N   0  0  0  0  0  0  0  0  0  0  0  0
    7.9820   13.6650   23.4970 C   0  0  0  0  0  0  0  0  0  0  0  0
    7.0120   13.4130   22.7920 O   0  0  0  0  0  0  0  0  0  0  0  0
    8.1740   13.0770   24.7060 N   0  0  0  0  0  0  0  0  0  0  0  0
    7.3980   12.0460   25.2720 C   0  0  0  0  0  0  0  0  0  0  0  0
    7.7020   10.7380   24.8780 C   0  0  0  0  0  0  0  0  0  0  0  0
    8.6660   10.6430   23.9100 O   0  0  0  0  0  0  0  0  0  0  0  0
    9.3430    9.4030   23.7600 C   0  0  0  0  0  0  0  0  0  0  0  0
    6.3920   12.2610   26.2040 C   0  0  0  0  0  0  0  0  0  0  0  0
    5.6930   11.1820   26.7330 C   0  0  0  0  0  0  0  0  0  0  0  0
    6.0240    9.8890   26.3580 C   0  0  0  0  0  0  0  0  0  0  0  0
    7.0180    9.6650   25.4240 C   0  0  0  0  0  0  0  0  0  0  0  0
    4.5650   11.4270   27.5680 N   0  0  0  0  0  0  0  0  0  0  0  0
    4.5490   11.1730   29.1750 S   0  0  0  0  0  0  0  0  0  0  0  0
    5.2770   12.2530   29.7670 O   0  0  0  0  0  0  0  0  0  0  0  0
    4.9970    9.8300   29.3890 O   0  0  0  0  0  0  0  0  0  0  0  0
    2.8720   11.2860   29.6800 C   0  0  0  0  0  0  0  0  0  0  0  0
  2  1  2  0
  3  2  1  0
  4  2  1  6
  5  4  1  0
  6  5  1  0
  7  6  1  0
  8  4  1  0
  9  8  1  0
  9  7  1  0
 10  9  1  0
 11 10  2  0
 12 10  1  0
 13 12  1  0
 14 13  2  0
 15 14  1  0
 16 15  1  0
 17 13  1  0
 18 17  2  0
 19 18  1  0
 20 19  2  0
 20 14  1  0
 21 18  1  0
 22 21  1  0
 23 22  2  0
 24 22  2  0
 22 25  1  0
M  END
>  <id>  (14) 
207435

>  <inchikey>  (14) 
SXBSHLKXQZBYPV-JTQLQIEISA-N

>  <alias>  (14) 
A4304a

>  <name>  (14) 
A4304a

>  <smiles>  (14) 
COc1ccc(NS(C)(=O)=O)cc1NC(=O)N1CCC[C@H](C(N)=O)C1

>  <path>  (14) 
/opt/xchem-fragalysis-2/maxwin/2A_HIPPO/A71EV2A_P3only_20241212/aligned_files/A4304a/A4304a.pdb

>  <distance_score>  (14) 
None

>  <energy_score>  (14) 
None

>  <compound>  (14) 
SXBSHLKXQZBYPV-UHFFFAOYSA-N

>  <compound_id>  (14) 
122560

>  <target>  (14) 
A71EV2A

$$$$
A71EV2A-x4306_A_201_v2
     RDKit          3D

 24 25  0  0  0  0  0  0  0  0999 V2000
   10.5800   10.1680   24.5320 F   0  0  0  0  0  0  0  0  0  0  0  0
    9.7800    9.5070   23.7210 C   0  0  0  0  0  0  0  0  0  0  0  0
    9.8610   10.1230   22.5470 F   0  0  0  0  0  0  0  0  0  0  0  0
   10.3060    8.2990   23.5510 F   0  0  0  0  0  0  0  0  0  0  0  0
    8.4060    9.4590   24.2540 C   0  0  0  0  0  0  0  0  0  0  0  0
    7.9760   10.8220   24.4180 O   0  0  0  0  0  0  0  0  0  0  0  0
    6.8340   11.0840   25.1320 C   0  0  0  0  0  0  0  0  0  0  0  0
    5.9630   10.1240   25.6290 C   0  0  0  0  0  0  0  0  0  0  0  0
    4.8340   10.5250   26.3240 C   0  0  0  0  0  0  0  0  0  0  0  0
    4.5840   11.8680   26.5350 C   0  0  0  0  0  0  0  0  0  0  0  0
    5.4520   12.8320   26.0440 C   0  0  0  0  0  0  0  0  0  0  0  0
    6.5860   12.4430   25.3300 C   0  0  0  0  0  0  0  0  0  0  0  0
    7.5560   13.3390   24.8170 N   0  0  0  0  0  0  0  0  0  0  0  0
    7.7760   13.5910   23.4870 C   0  0  0  0  0  0  0  0  0  0  0  0
    7.0480   13.1590   22.6090 O   0  0  0  0  0  0  0  0  0  0  0  0
    8.8180   14.4180   23.1920 N   0  0  0  0  0  0  0  0  0  0  0  0
    9.8140   14.8900   24.1700 C   0  0  0  0  0  0  0  0  0  0  0  0
   11.2270   14.8570   23.5920 C   0  0  0  0  0  0  0  0  0  0  0  0
   11.2700   15.5420   22.2270 C   0  0  0  0  0  0  0  0  0  0  0  0
    8.8670   15.0970   21.8910 C   0  0  0  0  0  0  0  0  0  0  0  0
   10.2510   14.9130   21.2570 C   0  0  1  0  0  0  0  0  0  0  0  0
   10.3380   15.5440   19.8760 C   0  0  0  0  0  0  0  0  0  0  0  0
    9.8480   16.6560   19.6520 O   0  0  0  0  0  0  0  0  0  0  0  0
   10.9530   14.8280   18.9460 N   0  0  0  0  0  0  0  0  0  0  0  0
  2  1  1  0
  3  2  1  0
  4  2  1  0
  5  2  1  0
  6  5  1  0
  7  6  1  0
  8  7  2  0
  9  8  1  0
 10  9  2  0
 11 10  1  0
 12 11  2  0
 12  7  1  0
 13 12  1  0
 14 13  1  0
 15 14  2  0
 16 14  1  0
 17 16  1  0
 18 17  1  0
 19 18  1  0
 20 16  1  0
 21 20  1  0
 21 19  1  0
 21 22  1  6
 23 22  2  0
 24 22  1  0
M  END
>  <id>  (15) 
207436

>  <inchikey>  (15) 
XHGBHCKDUHPBTE-JTQLQIEISA-N

>  <alias>  (15) 
A4306a

>  <name>  (15) 
A4306a

>  <smiles>  (15) 
NC(=O)[C@H]1CCCN(C(=O)Nc2ccccc2OCC(F)(F)F)C1

>  <path>  (15) 
/opt/xchem-fragalysis-2/maxwin/2A_HIPPO/A71EV2A_P3only_20241212/aligned_files/A4306a/A4306a.pdb

>  <distance_score>  (15) 
None

>  <energy_score>  (15) 
None

>  <compound>  (15) 
XHGBHCKDUHPBTE-UHFFFAOYSA-N

>  <compound_id>  (15) 
122561

>  <target>  (15) 
A71EV2A

$$$$
A71EV2A-x4309_A_201_v2
     RDKit          3D

 25 26  0  0  0  0  0  0  0  0999 V2000
    9.9630   16.8210   19.5730 O   0  0  0  0  0  0  0  0  0  0  0  0
   10.3820   15.6760   19.7760 C   0  0  0  0  0  0  0  0  0  0  0  0
   10.8110   14.8800   18.8080 N   0  0  0  0  0  0  0  0  0  0  0  0
   10.3740   15.0740   21.1700 C   0  0  1  0  0  0  0  0  0  0  0  0
   11.3830   15.7700   22.0980 C   0  0  0  0  0  0  0  0  0  0  0  0
   11.3430   15.1130   23.4780 C   0  0  0  0  0  0  0  0  0  0  0  0
    9.9230   15.1440   24.0490 C   0  0  0  0  0  0  0  0  0  0  0  0
    8.9710   15.1910   21.7730 C   0  0  0  0  0  0  0  0  0  0  0  0
    8.9350   14.5900   23.1080 N   0  0  0  0  0  0  0  0  0  0  0  0
    8.0050   13.6200   23.3760 C   0  0  0  0  0  0  0  0  0  0  0  0
    7.2620   13.1750   22.5110 O   0  0  0  0  0  0  0  0  0  0  0  0
    7.9180   13.2040   24.6690 N   0  0  0  0  0  0  0  0  0  0  0  0
    7.0630   12.1580   25.0940 C   0  0  0  0  0  0  0  0  0  0  0  0
    7.4310   10.8420   24.7350 C   0  0  0  0  0  0  0  0  0  0  0  0
    8.5600   10.7520   23.9650 O   0  0  0  0  0  0  0  0  0  0  0  0
    8.9580    9.4560   23.5040 C   0  0  0  0  0  0  0  0  0  0  0  0
    6.6840    9.7570   25.1810 C   0  0  0  0  0  0  0  0  0  0  0  0
    5.5780    9.9620   25.9830 C   0  0  0  0  0  0  0  0  0  0  0  0
    5.9340   12.3550   25.8860 C   0  0  0  0  0  0  0  0  0  0  0  0
    5.2010   11.2540   26.3130 C   0  0  0  0  0  0  0  0  0  0  0  0
    3.7090   11.5120   27.2190 S   0  0  0  0  0  0  0  0  0  0  0  0
    2.8740   10.3450   27.0700 O   0  0  0  0  0  0  0  0  0  0  0  0
    3.1600   12.7860   26.8450 O   0  0  0  0  0  0  0  0  0  0  0  0
    4.2560   11.6040   28.9090 C   0  0  0  0  0  0  0  0  0  0  0  0
    3.1470   11.9610   29.8750 C   0  0  0  0  0  0  0  0  0  0  0  0
  2  1  2  0
  3  2  1  0
  4  2  1  6
  5  4  1  0
  6  5  1  0
  7  6  1  0
  8  4  1  0
  9  8  1  0
  9  7  1  0
 10  9  1  0
 11 10  2  0
 12 10  1  0
 13 12  1  0
 14 13  2  0
 15 14  1  0
 16 15  1  0
 17 14  1  0
 18 17  2  0
 19 13  1  0
 20 18  1  0
 20 19  2  0
 21 20  1  0
 22 21  2  0
 23 21  2  0
 21 24  1  0
 25 24  1  0
M  END
>  <id>  (16) 
207437

>  <inchikey>  (16) 
WBSLTZMNEYEYKV-NSHDSACASA-N

>  <alias>  (16) 
A4309a

>  <name>  (16) 
A4309a

>  <smiles>  (16) 
CCS(=O)(=O)c1ccc(OC)c(NC(=O)N2CCC[C@H](C(N)=O)C2)c1

>  <path>  (16) 
/opt/xchem-fragalysis-2/maxwin/2A_HIPPO/A71EV2A_P3only_20241212/aligned_files/A4309a/A4309a_hippo.pdb

>  <distance_score>  (16) 
None

>  <energy_score>  (16) 
None

>  <compound>  (16) 
WBSLTZMNEYEYKV-UHFFFAOYSA-N

>  <compound_id>  (16) 
122562

>  <target>  (16) 
A71EV2A

$$$$
A71EV2A-x4319_A_201_v2
     RDKit          3D

 22 23  0  0  0  0  0  0  0  0999 V2000
    9.0020    8.5500   23.6240 F   0  0  0  0  0  0  0  0  0  0  0  0
    9.5690    9.6830   24.0290 C   0  0  0  0  0  0  0  0  0  0  0  0
   10.0550    9.8640   22.7920 F   0  0  0  0  0  0  0  0  0  0  0  0
    8.6670   10.6750   24.0260 O   0  0  0  0  0  0  0  0  0  0  0  0
    7.6270   10.8060   24.9130 C   0  0  0  0  0  0  0  0  0  0  0  0
    6.8180    9.7570   25.3190 C   0  0  0  0  0  0  0  0  0  0  0  0
    5.7410   10.0110   26.1530 C   0  0  0  0  0  0  0  0  0  0  0  0
    5.4830   11.2890   26.5840 C   0  0  0  0  0  0  0  0  0  0  0  0
    6.2980   12.3320   26.1870 C   0  0  0  0  0  0  0  0  0  0  0  0
    7.3820   12.1120   25.3430 C   0  0  0  0  0  0  0  0  0  0  0  0
    8.3140   13.2400   24.9620 C   0  0  0  0  0  0  0  0  0  0  0  0
    8.1240   13.7280   23.5340 C   0  0  0  0  0  0  0  0  0  0  0  0
    7.2950   13.2300   22.7880 O   0  0  0  0  0  0  0  0  0  0  0  0
    8.9010   14.7630   23.1510 N   0  0  0  0  0  0  0  0  0  0  0  0
    9.8620   15.4630   24.0200 C   0  0  0  0  0  0  0  0  0  0  0  0
   11.2500   15.4730   23.4090 C   0  0  0  0  0  0  0  0  0  0  0  0
   11.2150   15.9920   21.9660 C   0  0  0  0  0  0  0  0  0  0  0  0
    8.8080   15.3150   21.7950 C   0  0  0  0  0  0  0  0  0  0  0  0
   10.1770   15.2390   21.1180 C   0  0  1  0  0  0  0  0  0  0  0  0
   10.1410   15.7480   19.6880 C   0  0  0  0  0  0  0  0  0  0  0  0
   10.4620   15.0150   18.7470 O   0  0  0  0  0  0  0  0  0  0  0  0
    9.7440   17.0010   19.5210 N   0  0  0  0  0  0  0  0  0  0  0  0
  2  1  1  0
  3  2  1  0
  4  2  1  0
  5  4  1  0
  6  5  2  0
  7  6  1  0
  8  7  2  0
  9  8  1  0
 10  5  1  0
 10  9  2  0
 11 10  1  0
 12 11  1  0
 13 12  2  0
 14 12  1  0
 15 14  1  0
 16 15  1  0
 17 16  1  0
 18 14  1  0
 19 18  1  0
 19 17  1  0
 19 20  1  6
 21 20  2  0
 22 20  1  0
M  END
>  <id>  (17) 
207438

>  <inchikey>  (17) 
CNHPUFFRJJADDP-NSHDSACASA-N

>  <alias>  (17) 
A4319a

>  <name>  (17) 
A4319a

>  <smiles>  (17) 
NC(=O)[C@H]1CCCN(C(=O)Cc2ccccc2OC(F)F)C1

>  <path>  (17) 
/opt/xchem-fragalysis-2/maxwin/2A_HIPPO/A71EV2A_P3only_20241212/aligned_files/A4319a/A4319a.pdb

>  <distance_score>  (17) 
None

>  <energy_score>  (17) 
None

>  <compound>  (17) 
CNHPUFFRJJADDP-UHFFFAOYSA-N

>  <compound_id>  (17) 
122563

>  <target>  (17) 
A71EV2A

$$$$
A71EV2A-x4321_A_201_v2
     RDKit          3D

 21 22  0  0  0  0  0  0  0  0999 V2000
    9.8620   16.9460   19.4820 O   0  0  0  0  0  0  0  0  0  0  0  0
   10.2530   15.7960   19.7080 C   0  0  0  0  0  0  0  0  0  0  0  0
   10.5760   14.9410   18.7430 N   0  0  0  0  0  0  0  0  0  0  0  0
   10.3280   15.2600   21.1270 C   0  0  1  0  0  0  0  0  0  0  0  0
   11.4260   15.9610   21.9450 C   0  0  0  0  0  0  0  0  0  0  0  0
   11.4540   15.4370   23.3850 C   0  0  0  0  0  0  0  0  0  0  0  0
   10.0680   15.5210   24.0240 C   0  0  0  0  0  0  0  0  0  0  0  0
    8.9640   15.3740   21.8140 C   0  0  0  0  0  0  0  0  0  0  0  0
    9.0530   14.8600   23.1840 N   0  0  0  0  0  0  0  0  0  0  0  0
    8.2510   13.8480   23.5840 C   0  0  0  0  0  0  0  0  0  0  0  0
    7.4510   13.3190   22.8290 O   0  0  0  0  0  0  0  0  0  0  0  0
    8.3670   13.4170   25.0340 C   0  0  0  0  0  0  0  0  0  0  0  0
    7.4950   12.2230   25.3570 C   0  0  0  0  0  0  0  0  0  0  0  0
    7.8440   10.9210   24.9720 C   0  0  0  0  0  0  0  0  0  0  0  0
    9.1310   10.6450   24.2160 C   0  0  0  0  0  0  0  0  0  0  0  0
    9.3340    9.2250   23.9390 C   0  0  0  0  0  0  0  0  0  0  0  0
    9.4730    8.1230   23.7080 N   0  0  0  0  0  0  0  0  0  0  0  0
    6.3410   12.4160   26.1130 C   0  0  0  0  0  0  0  0  0  0  0  0
    5.5540   11.3440   26.5020 C   0  0  0  0  0  0  0  0  0  0  0  0
    5.8940   10.0740   26.1220 C   0  0  0  0  0  0  0  0  0  0  0  0
    7.0240    9.8610   25.3450 C   0  0  0  0  0  0  0  0  0  0  0  0
  2  1  2  0
  3  2  1  0
  4  2  1  6
  5  4  1  0
  6  5  1  0
  7  6  1  0
  8  4  1  0
  9  8  1  0
  9  7  1  0
 10  9  1  0
 11 10  2  0
 12 10  1  0
 13 12  1  0
 14 13  2  0
 15 14  1  0
 16 15  1  0
 17 16  3  0
 18 13  1  0
 19 18  2  0
 20 19  1  0
 21 20  2  0
 21 14  1  0
M  END
>  <id>  (18) 
207439

>  <inchikey>  (18) 
SPTOPDLRNCGQBI-AWEZNQCLSA-N

>  <alias>  (18) 
A4321a

>  <name>  (18) 
A4321a

>  <smiles>  (18) 
N#CCc1ccccc1CC(=O)N1CCC[C@H](C(N)=O)C1

>  <path>  (18) 
/opt/xchem-fragalysis-2/maxwin/2A_HIPPO/A71EV2A_P3only_20241212/aligned_files/A4321a/A4321a_hippo.pdb

>  <distance_score>  (18) 
None

>  <energy_score>  (18) 
None

>  <compound>  (18) 
SPTOPDLRNCGQBI-UHFFFAOYSA-N

>  <compound_id>  (18) 
122564

>  <target>  (18) 
A71EV2A

$$$$
A71EV2A-x4324_A_201_v2
     RDKit          3D

 20 22  0  0  0  0  0  0  0  0999 V2000
   11.1960   14.7110   25.2500 O   0  0  0  0  0  0  0  0  0  0  0  0
   11.0720   14.8270   24.0330 C   0  0  0  0  0  0  0  0  0  0  0  0
   12.2320   15.2990   23.1940 C   0  0  0  0  0  0  0  0  0  0  0  0
   11.8870   15.8390   21.7990 C   0  0  0  0  0  0  0  0  0  0  0  0
    9.8820   14.6440   23.4050 N   0  0  0  0  0  0  0  0  0  0  0  0
    9.5590   14.9230   21.9980 C   0  0  0  0  0  0  0  0  0  0  0  0
   10.8160   14.9720   21.1270 C   0  0  1  0  0  0  0  0  0  0  0  0
   10.4830   15.4530   19.7230 C   0  0  0  0  0  0  0  0  0  0  0  0
    9.8610   16.5100   19.5370 O   0  0  0  0  0  0  0  0  0  0  0  0
   10.8240   14.6340   18.7380 N   0  0  0  0  0  0  0  0  0  0  0  0
    8.7140   14.2460   24.1920 C   0  0  0  0  0  0  0  0  0  0  0  0
    8.5270   12.7530   24.3310 C   0  0  0  0  0  0  0  0  0  0  0  0
    7.5120   12.2710   25.1610 C   0  0  0  0  0  0  0  0  0  0  0  0
    6.6060   13.0520   25.8430 O   0  0  0  0  0  0  0  0  0  0  0  0
    5.7020   12.1380   26.5490 C   0  0  0  0  0  0  0  0  0  0  0  0
    6.2270   10.7060   26.3520 C   0  0  0  0  0  0  0  0  0  0  0  0
    7.3500   10.9130   25.3660 C   0  0  0  0  0  0  0  0  0  0  0  0
    8.1880   10.0070   24.7250 C   0  0  0  0  0  0  0  0  0  0  0  0
    9.1630   10.4620   23.8610 C   0  0  0  0  0  0  0  0  0  0  0  0
    9.3410   11.8260   23.6760 C   0  0  0  0  0  0  0  0  0  0  0  0
  2  1  2  0
  3  2  1  0
  4  3  1  0
  5  2  1  0
  6  5  1  0
  7  6  1  0
  7  4  1  0
  7  8  1  6
  9  8  2  0
 10  8  1  0
 11  5  1  0
 12 11  1  0
 13 12  2  0
 14 13  1  0
 15 14  1  0
 16 15  1  0
 17 16  1  0
 17 13  1  0
 18 17  2  0
 19 18  1  0
 20 19  2  0
 20 12  1  0
M  END
>  <id>  (19) 
207440

>  <inchikey>  (19) 
AFDMLMKWXCGILH-LBPRGKRZSA-N

>  <alias>  (19) 
A4324a

>  <name>  (19) 
A4324a

>  <smiles>  (19) 
NC(=O)[C@H]1CCC(=O)N(Cc2cccc3c2OCC3)C1

>  <path>  (19) 
/opt/xchem-fragalysis-2/maxwin/2A_HIPPO/A71EV2A_P3only_20241212/aligned_files/A4324a/A4324a.pdb

>  <distance_score>  (19) 
None

>  <energy_score>  (19) 
None

>  <compound>  (19) 
AFDMLMKWXCGILH-UHFFFAOYSA-N

>  <compound_id>  (19) 
122565

>  <target>  (19) 
A71EV2A

$$$$
A71EV2A-x4331_A_201_v2
     RDKit          3D

 20 21  0  0  0  0  0  0  0  0999 V2000
    9.8680   16.8610   19.5140 O   0  0  0  0  0  0  0  0  0  0  0  0
   10.2790   15.7190   19.7470 C   0  0  0  0  0  0  0  0  0  0  0  0
   10.6340   14.8710   18.7900 N   0  0  0  0  0  0  0  0  0  0  0  0
   10.3360   15.1830   21.1680 C   0  0  1  0  0  0  0  0  0  0  0  0
   11.4020   15.9070   22.0170 C   0  0  0  0  0  0  0  0  0  0  0  0
   11.4370   15.3430   23.4430 C   0  0  0  0  0  0  0  0  0  0  0  0
   10.0500   15.3820   24.0820 C   0  0  0  0  0  0  0  0  0  0  0  0
    8.9720   15.2980   21.8630 C   0  0  0  0  0  0  0  0  0  0  0  0
    9.0410   14.7410   23.2160 N   0  0  0  0  0  0  0  0  0  0  0  0
    8.2320   13.7260   23.5980 C   0  0  0  0  0  0  0  0  0  0  0  0
    7.4280   13.2090   22.8310 O   0  0  0  0  0  0  0  0  0  0  0  0
    8.3660   13.2540   25.0360 C   0  0  0  0  0  0  0  0  0  0  0  0
    7.4660   12.0800   25.3490 C   0  0  0  0  0  0  0  0  0  0  0  0
    7.7740   10.7690   24.9360 C   0  0  0  0  0  0  0  0  0  0  0  0
    9.0640   10.4430   24.2010 C   0  0  0  0  0  0  0  0  0  0  0  0
    9.2530    8.9980   23.7560 C   0  0  0  0  0  0  0  0  0  0  0  0
    6.3250   12.2990   26.1220 C   0  0  0  0  0  0  0  0  0  0  0  0
    5.4930   11.2490   26.4810 C   0  0  0  0  0  0  0  0  0  0  0  0
    5.7790    9.9750   26.0540 C   0  0  0  0  0  0  0  0  0  0  0  0
    6.9060    9.7350   25.2820 C   0  0  0  0  0  0  0  0  0  0  0  0
  2  1  2  0
  3  2  1  0
  4  2  1  6
  5  4  1  0
  6  5  1  0
  7  6  1  0
  8  4  1  0
  9  8  1  0
  9  7  1  0
 10  9  1  0
 11 10  2  0
 12 10  1  0
 13 12  1  0
 14 13  2  0
 15 14  1  0
 16 15  1  0
 17 13  1  0
 18 17  2  0
 19 18  1  0
 20 19  2  0
 20 14  1  0
M  END
>  <id>  (20) 
207441

>  <inchikey>  (20) 
IFJNGSWSPUXOCR-AWEZNQCLSA-N

>  <alias>  (20) 
A4331a

>  <name>  (20) 
A4331a

>  <smiles>  (20) 
CCc1ccccc1CC(=O)N1CCC[C@H](C(N)=O)C1

>  <path>  (20) 
/opt/xchem-fragalysis-2/maxwin/2A_HIPPO/A71EV2A_P3only_20241212/aligned_files/A4331a/A4331a_hippo.pdb

>  <distance_score>  (20) 
None

>  <energy_score>  (20) 
None

>  <compound>  (20) 
IFJNGSWSPUXOCR-UHFFFAOYSA-N

>  <compound_id>  (20) 
122566

>  <target>  (20) 
A71EV2A

$$$$
A71EV2A-x4333_A_201_v2
     RDKit          3D

 19 20  0  0  0  0  0  0  0  0999 V2000
    9.8940   16.6510   19.7370 O   0  0  0  0  0  0  0  0  0  0  0  0
   10.3910   15.5360   19.9040 C   0  0  0  0  0  0  0  0  0  0  0  0
   10.8560   14.8070   18.9040 N   0  0  0  0  0  0  0  0  0  0  0  0
   10.4970   14.9210   21.2900 C   0  0  1  0  0  0  0  0  0  0  0  0
   11.6170   15.5710   22.1160 C   0  0  0  0  0  0  0  0  0  0  0  0
   11.7160   14.9590   23.5160 C   0  0  0  0  0  0  0  0  0  0  0  0
   10.3630   14.9740   24.2260 C   0  0  0  0  0  0  0  0  0  0  0  0
    9.1770   15.0000   22.0650 C   0  0  0  0  0  0  0  0  0  0  0  0
    9.3210   14.3700   23.3810 N   0  0  0  0  0  0  0  0  0  0  0  0
    8.5860   13.2880   23.7100 C   0  0  0  0  0  0  0  0  0  0  0  0
    7.6700   12.8920   23.0020 O   0  0  0  0  0  0  0  0  0  0  0  0
    8.9860   12.5630   24.9870 C   0  0  0  0  0  0  0  0  0  0  0  0
    7.9970   11.4910   25.4010 C   0  0  0  0  0  0  0  0  0  0  0  0
    8.0680   10.1640   24.8990 C   0  0  0  0  0  0  0  0  0  0  0  0
    9.1260    9.7430   23.9220 C   0  0  0  0  0  0  0  0  0  0  0  0
    6.9790   11.7790   26.3060 C   0  0  0  0  0  0  0  0  0  0  0  0
    6.0780   10.7970   26.6740 C   0  0  0  0  0  0  0  0  0  0  0  0
    6.2210    9.5400   26.1310 C   0  0  0  0  0  0  0  0  0  0  0  0
    7.1940    9.2140   25.2660 N   0  0  0  0  0  0  0  0  0  0  0  0
  2  1  2  0
  3  2  1  0
  4  2  1  6
  5  4  1  0
  6  5  1  0
  7  6  1  0
  8  4  1  0
  9  8  1  0
  9  7  1  0
 10  9  1  0
 11 10  2  0
 12 10  1  0
 13 12  1  0
 14 13  2  0
 15 14  1  0
 16 13  1  0
 17 16  2  0
 18 17  1  0
 19 18  2  0
 19 14  1  0
M  END
>  <id>  (21) 
207442

>  <inchikey>  (21) 
JMAAQTAWUKUKJY-LBPRGKRZSA-N

>  <alias>  (21) 
A4333a

>  <name>  (21) 
A4333a

>  <smiles>  (21) 
Cc1ncccc1CC(=O)N1CCC[C@H](C(N)=O)C1

>  <path>  (21) 
/opt/xchem-fragalysis-2/maxwin/2A_HIPPO/A71EV2A_P3only_20241212/aligned_files/A4333a/A4333a.pdb

>  <distance_score>  (21) 
None

>  <energy_score>  (21) 
None

>  <compound>  (21) 
JMAAQTAWUKUKJY-UHFFFAOYSA-N

>  <compound_id>  (21) 
122567

>  <target>  (21) 
A71EV2A

$$$$
A71EV2A-x4334_A_201_v2
     RDKit          3D

 20 21  0  0  0  0  0  0  0  0999 V2000
    9.8450   16.9670   19.3810 O   0  0  0  0  0  0  0  0  0  0  0  0
   10.2370   15.8170   19.6310 C   0  0  0  0  0  0  0  0  0  0  0  0
   10.5540   14.9320   18.6990 N   0  0  0  0  0  0  0  0  0  0  0  0
   10.3270   15.3120   21.0590 C   0  0  1  0  0  0  0  0  0  0  0  0
   11.4840   15.9640   21.8270 C   0  0  0  0  0  0  0  0  0  0  0  0
   11.5250   15.4730   23.2750 C   0  0  0  0  0  0  0  0  0  0  0  0
   10.1620   15.6310   23.9410 C   0  0  0  0  0  0  0  0  0  0  0  0
    9.0010   15.5710   21.7660 C   0  0  0  0  0  0  0  0  0  0  0  0
    9.1020   15.0240   23.1190 N   0  0  0  0  0  0  0  0  0  0  0  0
    8.3880   13.9340   23.4560 C   0  0  0  0  0  0  0  0  0  0  0  0
    7.5100   13.4620   22.7380 O   0  0  0  0  0  0  0  0  0  0  0  0
    8.7750   13.2960   24.7730 C   0  0  0  0  0  0  0  0  0  0  0  0
    8.1980   11.9160   24.8520 C   0  0  0  0  0  0  0  0  0  0  0  0
    8.7670   10.8710   24.1410 C   0  0  0  0  0  0  0  0  0  0  0  0
    8.2700    9.5940   24.2630 C   0  0  0  0  0  0  0  0  0  0  0  0
    7.1920    9.3450   25.0930 C   0  0  0  0  0  0  0  0  0  0  0  0
    7.1200   11.6620   25.6860 C   0  0  0  0  0  0  0  0  0  0  0  0
    6.6230   10.3810   25.8170 C   0  0  0  0  0  0  0  0  0  0  0  0
    5.3150   10.0720   26.9540 S   0  0  0  0  0  0  0  0  0  0  0  0
    4.8560   11.6930   27.5670 C   0  0  0  0  0  0  0  0  0  0  0  0
  2  1  2  0
  3  2  1  0
  4  2  1  6
  5  4  1  0
  6  5  1  0
  7  6  1  0
  8  4  1  0
  9  8  1  0
  9  7  1  0
 10  9  1  0
 11 10  2  0
 12 10  1  0
 13 12  1  0
 14 13  2  0
 15 14  1  0
 16 15  2  0
 17 13  1  0
 18 16  1  0
 18 17  2  0
 19 18  1  0
 20 19  1  0
M  END
>  <id>  (22) 
207443

>  <inchikey>  (22) 
YEEQWHOUTZRGAB-LBPRGKRZSA-N

>  <alias>  (22) 
A4334a

>  <name>  (22) 
A4334a

>  <smiles>  (22) 
CSc1cccc(CC(=O)N2CCC[C@H](C(N)=O)C2)c1

>  <path>  (22) 
/opt/xchem-fragalysis-2/maxwin/2A_HIPPO/A71EV2A_P3only_20241212/aligned_files/A4334a/A4334a_hippo.pdb

>  <distance_score>  (22) 
None

>  <energy_score>  (22) 
None

>  <compound>  (22) 
YEEQWHOUTZRGAB-UHFFFAOYSA-N

>  <compound_id>  (22) 
122568

>  <target>  (22) 
A71EV2A

$$$$
A71EV2A-x4336_A_201_v2
     RDKit          3D

 20 21  0  0  0  0  0  0  0  0999 V2000
   10.0900   11.9030   23.4210 Cl  0  0  0  0  0  0  0  0  0  0  0  0
    8.7340   11.3380   24.3270 C   0  0  0  0  0  0  0  0  0  0  0  0
    8.4290    9.9830   24.3510 C   0  0  0  0  0  0  0  0  0  0  0  0
    9.4280    8.8410   23.5100 Cl  0  0  0  0  0  0  0  0  0  0  0  0
    7.3450    9.5170   25.0700 C   0  0  0  0  0  0  0  0  0  0  0  0
    6.5760   10.4140   25.7930 C   0  0  0  0  0  0  0  0  0  0  0  0
    6.8780   11.7670   25.7770 C   0  0  0  0  0  0  0  0  0  0  0  0
    7.9500   12.2540   25.0320 C   0  0  0  0  0  0  0  0  0  0  0  0
    8.1760   13.7470   24.9400 C   0  0  0  0  0  0  0  0  0  0  0  0
    8.0410   14.2310   23.5090 C   0  0  0  0  0  0  0  0  0  0  0  0
    7.2840   13.6700   22.7260 O   0  0  0  0  0  0  0  0  0  0  0  0
    8.8310   15.2600   23.1300 N   0  0  0  0  0  0  0  0  0  0  0  0
    9.8160   15.9420   23.9840 C   0  0  0  0  0  0  0  0  0  0  0  0
   11.2180   15.8220   23.3940 C   0  0  0  0  0  0  0  0  0  0  0  0
   11.2420   16.2510   21.9210 C   0  0  0  0  0  0  0  0  0  0  0  0
    8.8010   15.7720   21.7580 C   0  0  0  0  0  0  0  0  0  0  0  0
   10.1600   15.5350   21.0950 C   0  0  1  0  0  0  0  0  0  0  0  0
   10.1760   15.9810   19.6420 C   0  0  0  0  0  0  0  0  0  0  0  0
    9.8460   17.1260   19.3230 O   0  0  0  0  0  0  0  0  0  0  0  0
   10.5570   15.0690   18.7610 N   0  0  0  0  0  0  0  0  0  0  0  0
  2  1  1  0
  3  2  2  0
  4  3  1  0
  5  3  1  0
  6  5  2  0
  7  6  1  0
  8  7  2  0
  8  2  1  0
  9  8  1  0
 10  9  1  0
 11 10  2  0
 12 10  1  0
 13 12  1  0
 14 13  1  0
 15 14  1  0
 16 12  1  0
 17 16  1  0
 17 15  1  0
 17 18  1  6
 19 18  2  0
 20 18  1  0
M  END
>  <id>  (23) 
207444

>  <inchikey>  (23) 
TXWPVJKFUSGQMQ-JTQLQIEISA-N

>  <alias>  (23) 
A4336a

>  <name>  (23) 
A4336a

>  <smiles>  (23) 
NC(=O)[C@H]1CCCN(C(=O)Cc2cccc(Cl)c2Cl)C1

>  <path>  (23) 
/opt/xchem-fragalysis-2/maxwin/2A_HIPPO/A71EV2A_P3only_20241212/aligned_files/A4336a/A4336a.pdb

>  <distance_score>  (23) 
None

>  <energy_score>  (23) 
None

>  <compound>  (23) 
TXWPVJKFUSGQMQ-UHFFFAOYSA-N

>  <compound_id>  (23) 
122569

>  <target>  (23) 
A71EV2A

$$$$
A71EV2A-x4347_A_201_v2
     RDKit          3D

 20 21  0  0  0  0  0  0  0  0999 V2000
    9.9450   16.7580   19.6530 O   0  0  0  0  0  0  0  0  0  0  0  0
   10.4150   15.6300   19.8320 C   0  0  0  0  0  0  0  0  0  0  0  0
   10.7980   14.8540   18.8370 N   0  0  0  0  0  0  0  0  0  0  0  0
   10.4980   15.0200   21.2220 C   0  0  1  0  0  0  0  0  0  0  0  0
   11.6430   15.6320   22.0540 C   0  0  0  0  0  0  0  0  0  0  0  0
   11.7610   14.9590   23.4260 C   0  0  0  0  0  0  0  0  0  0  0  0
   10.4290   14.9800   24.1550 C   0  0  0  0  0  0  0  0  0  0  0  0
    9.1930   15.0570   22.0200 C   0  0  0  0  0  0  0  0  0  0  0  0
    9.3620   14.4020   23.3200 N   0  0  0  0  0  0  0  0  0  0  0  0
    8.5510   13.3860   23.6910 C   0  0  0  0  0  0  0  0  0  0  0  0
    7.6690   12.9560   22.9540 O   0  0  0  0  0  0  0  0  0  0  0  0
    8.7890   12.8170   25.0790 C   0  0  0  0  0  0  0  0  0  0  0  0
    7.9320   11.6110   25.3920 C   0  0  0  0  0  0  0  0  0  0  0  0
    8.1070   10.3380   24.7990 C   0  0  0  0  0  0  0  0  0  0  0  0
    9.1730   10.2460   23.9730 O   0  0  0  0  0  0  0  0  0  0  0  0
    9.3910    9.0160   23.2910 C   0  0  0  0  0  0  0  0  0  0  0  0
    6.9410   11.6960   26.3640 C   0  0  0  0  0  0  0  0  0  0  0  0
    6.1740   10.5930   26.6860 C   0  0  0  0  0  0  0  0  0  0  0  0
    6.4120    9.4190   26.0200 C   0  0  0  0  0  0  0  0  0  0  0  0
    7.3610    9.2750   25.0830 N   0  0  0  0  0  0  0  0  0  0  0  0
  2  1  2  0
  3  2  1  0
  4  2  1  6
  5  4  1  0
  6  5  1  0
  7  6  1  0
  8  4  1  0
  9  8  1  0
  9  7  1  0
 10  9  1  0
 11 10  2  0
 12 10  1  0
 13 12  1  0
 14 13  2  0
 15 14  1  0
 16 15  1  0
 17 13  1  0
 18 17  2  0
 19 18  1  0
 20 19  2  0
 20 14  1  0
M  END
>  <id>  (24) 
207445

>  <inchikey>  (24) 
DPQNQDXNIINHJH-NSHDSACASA-N

>  <alias>  (24) 
A4347a

>  <name>  (24) 
A4347a

>  <smiles>  (24) 
COc1ncccc1CC(=O)N1CCC[C@H](C(N)=O)C1

>  <path>  (24) 
/opt/xchem-fragalysis-2/maxwin/2A_HIPPO/A71EV2A_P3only_20241212/aligned_files/A4347a/A4347a.pdb

>  <distance_score>  (24) 
None

>  <energy_score>  (24) 
None

>  <compound>  (24) 
DPQNQDXNIINHJH-UHFFFAOYSA-N

>  <compound_id>  (24) 
122467

>  <target>  (24) 
A71EV2A

$$$$
A71EV2A-x4365_A_201_v2
     RDKit          3D

 22 24  0  0  0  0  0  0  0  0999 V2000
    7.4980   13.5320   22.8470 O   0  0  0  0  0  0  0  0  0  0  0  0
    8.4300   13.9360   23.5340 C   0  0  0  0  0  0  0  0  0  0  0  0
    9.1080   15.0620   23.2460 N   0  0  0  0  0  0  0  0  0  0  0  0
   10.2270   15.6010   24.0320 C   0  0  0  0  0  0  0  0  0  0  0  0
   11.5380   15.4170   23.2690 C   0  0  0  0  0  0  0  0  0  0  0  0
   11.4190   15.9620   21.8440 C   0  0  0  0  0  0  0  0  0  0  0  0
    8.9500   15.6800   21.9290 C   0  0  0  0  0  0  0  0  0  0  0  0
   10.2030   15.3540   21.1170 C   0  0  1  0  0  0  0  0  0  0  0  0
   10.1050   15.8240   19.6770 C   0  0  0  0  0  0  0  0  0  0  0  0
    9.7750   16.9800   19.4060 O   0  0  0  0  0  0  0  0  0  0  0  0
   10.3880   14.9170   18.7530 N   0  0  0  0  0  0  0  0  0  0  0  0
    8.9660   13.1410   24.7060 C   0  0  0  0  0  0  0  0  0  0  0  0
    8.2370   11.8300   24.8140 C   0  0  0  0  0  0  0  0  0  0  0  0
    7.0890   11.7230   25.5930 C   0  0  0  0  0  0  0  0  0  0  0  0
    6.5760   12.8890   26.1040 O   0  0  0  0  0  0  0  0  0  0  0  0
    5.7030   12.7420   27.2530 C   0  0  0  0  0  0  0  0  0  0  0  0
    4.7570   11.5970   27.0770 C   0  0  0  0  0  0  0  0  0  0  0  0
    5.3680   10.3630   26.6020 O   0  0  0  0  0  0  0  0  0  0  0  0
    6.4590   10.4970   25.7800 C   0  0  0  0  0  0  0  0  0  0  0  0
    6.9590    9.3670   25.1540 C   0  0  0  0  0  0  0  0  0  0  0  0
    8.0870    9.4670   24.3560 C   0  0  0  0  0  0  0  0  0  0  0  0
    8.7220   10.6850   24.1860 C   0  0  0  0  0  0  0  0  0  0  0  0
  2  1  2  0
  3  2  1  0
  4  3  1  0
  5  4  1  0
  6  5  1  0
  7  3  1  0
  8  7  1  0
  8  6  1  0
  8  9  1  6
 10  9  2  0
 11  9  1  0
 12  2  1  0
 13 12  1  0
 14 13  1  0
 15 14  1  0
 16 15  1  0
 17 16  1  0
 18 17  1  0
 19 18  1  0
 19 14  2  0
 20 19  1  0
 21 20  2  0
 22 21  1  0
 22 13  2  0
M  END
>  <id>  (25) 
207446

>  <inchikey>  (25) 
FRGPDZGWTMZAON-LBPRGKRZSA-N

>  <alias>  (25) 
A4365a

>  <name>  (25) 
A4365a

>  <smiles>  (25) 
NC(=O)[C@H]1CCCN(C(=O)Cc2cccc3c2OCCO3)C1

>  <path>  (25) 
/opt/xchem-fragalysis-2/maxwin/2A_HIPPO/A71EV2A_P3only_20241212/aligned_files/A4365a/A4365a_hippo.pdb

>  <distance_score>  (25) 
None

>  <energy_score>  (25) 
None

>  <compound>  (25) 
FRGPDZGWTMZAON-UHFFFAOYSA-N

>  <compound_id>  (25) 
122570

>  <target>  (25) 
A71EV2A

$$$$
A71EV2A-x4372_A_201_v2
     RDKit          3D

 19 20  0  0  0  0  0  0  0  0999 V2000
    7.3470   13.0970   22.8730 O   0  0  0  0  0  0  0  0  0  0  0  0
    8.3310   13.3790   23.5390 C   0  0  0  0  0  0  0  0  0  0  0  0
    9.1180   14.4330   23.2400 N   0  0  0  0  0  0  0  0  0  0  0  0
   10.1800   14.9830   24.0990 C   0  0  0  0  0  0  0  0  0  0  0  0
   11.5220   14.9940   23.3670 C   0  0  0  0  0  0  0  0  0  0  0  0
   11.3940   15.6400   21.9850 C   0  0  0  0  0  0  0  0  0  0  0  0
    8.9720   15.1230   21.9570 C   0  0  0  0  0  0  0  0  0  0  0  0
   10.2710   14.9830   21.1680 C   0  0  1  0  0  0  0  0  0  0  0  0
   10.1680   15.5640   19.7680 C   0  0  0  0  0  0  0  0  0  0  0  0
    9.7810   16.7190   19.5840 O   0  0  0  0  0  0  0  0  0  0  0  0
   10.4930   14.7470   18.7810 N   0  0  0  0  0  0  0  0  0  0  0  0
    8.7470   12.5380   24.7320 C   0  0  0  0  0  0  0  0  0  0  0  0
    7.5830   12.2520   25.6510 C   0  0  0  0  0  0  0  0  0  0  0  0
    6.8300   13.2610   26.2640 C   0  0  0  0  0  0  0  0  0  0  0  0
    7.1290   14.5420   26.2580 O   0  0  0  0  0  0  0  0  0  0  0  0
    5.6840   13.0180   27.0350 N   0  0  0  0  0  0  0  0  0  0  0  0
    5.3490   11.7300   27.2030 C   0  0  0  0  0  0  0  0  0  0  0  0
    6.0610   10.6750   26.6680 C   0  0  0  0  0  0  0  0  0  0  0  0
    7.1720   10.9420   25.8840 C   0  0  0  0  0  0  0  0  0  0  0  0
  2  1  2  0
  3  2  1  0
  4  3  1  0
  5  4  1  0
  6  5  1  0
  7  3  1  0
  8  7  1  0
  8  6  1  0
  8  9  1  6
 10  9  2  0
 11  9  1  0
 12  2  1  0
 13 12  1  0
 14 13  2  0
 15 14  1  0
 16 14  1  0
 17 16  2  0
 18 17  1  0
 19 18  2  0
 19 13  1  0
M  END
>  <id>  (26) 
207447

>  <inchikey>  (26) 
YJUWSGAKKBDWFC-JTQLQIEISA-N

>  <alias>  (26) 
A4372a

>  <name>  (26) 
A4372a

>  <smiles>  (26) 
NC(=O)[C@H]1CCCN(C(=O)Cc2cccnc2O)C1

>  <path>  (26) 
/opt/xchem-fragalysis-2/maxwin/2A_HIPPO/A71EV2A_P3only_20241212/aligned_files/A4372a/A4372a.pdb

>  <distance_score>  (26) 
None

>  <energy_score>  (26) 
None

>  <compound>  (26) 
YJUWSGAKKBDWFC-UHFFFAOYSA-N

>  <compound_id>  (26) 
122571

>  <target>  (26) 
A71EV2A

$$$$
A71EV2A-x4381_A_201_v2
     RDKit          3D

 26 27  0  0  0  0  0  0  0  0999 V2000
    3.8670   11.4330   26.6580 F   0  0  0  0  0  0  0  0  0  0  0  0
    4.8880   12.3190   26.6820 C   0  0  0  0  0  0  0  0  0  0  0  0
    5.0450   12.4210   28.0210 F   0  0  0  0  0  0  0  0  0  0  0  0
    4.3960   13.4780   26.1520 F   0  0  0  0  0  0  0  0  0  0  0  0
    6.1360   11.8200   25.9810 C   0  0  0  0  0  0  0  0  0  0  0  0
    6.2140   10.4330   25.8950 C   0  0  0  0  0  0  0  0  0  0  0  0
    7.3340    9.7950   25.3930 C   0  0  0  0  0  0  0  0  0  0  0  0
    8.4580   10.5280   25.0360 C   0  0  0  0  0  0  0  0  0  0  0  0
    9.4780    9.9810   24.1160 C   0  0  0  0  0  0  0  0  0  0  0  0
    9.2470    8.7190   23.7640 F   0  0  0  0  0  0  0  0  0  0  0  0
   10.6930   10.1080   24.6180 F   0  0  0  0  0  0  0  0  0  0  0  0
    9.5140   10.6710   22.9870 F   0  0  0  0  0  0  0  0  0  0  0  0
    8.4210   11.8920   25.2420 C   0  0  0  0  0  0  0  0  0  0  0  0
    7.2530   12.5610   25.5510 C   0  0  0  0  0  0  0  0  0  0  0  0
    7.1650   13.9250   24.9010 C   0  0  0  0  0  0  0  0  0  0  0  0
    7.7810   13.8910   23.5070 C   0  0  0  0  0  0  0  0  0  0  0  0
    7.3660   13.0860   22.6910 O   0  0  0  0  0  0  0  0  0  0  0  0
    8.7610   14.7730   23.1860 N   0  0  0  0  0  0  0  0  0  0  0  0
    9.8450   15.1970   24.0860 C   0  0  0  0  0  0  0  0  0  0  0  0
   11.2130   15.1050   23.4190 C   0  0  0  0  0  0  0  0  0  0  0  0
   11.2110   15.7910   22.0490 C   0  0  0  0  0  0  0  0  0  0  0  0
    8.7650   15.4400   21.8760 C   0  0  0  0  0  0  0  0  0  0  0  0
   10.1010   15.2340   21.1490 C   0  0  1  0  0  0  0  0  0  0  0  0
   10.1750   15.8340   19.7530 C   0  0  0  0  0  0  0  0  0  0  0  0
    9.9730   17.0340   19.5610 O   0  0  0  0  0  0  0  0  0  0  0  0
   10.4830   14.9990   18.7750 N   0  0  0  0  0  0  0  0  0  0  0  0
  2  1  1  0
  3  2  1  0
  4  2  1  0
  5  2  1  0
  6  5  2  0
  7  6  1  0
  8  7  2  0
  9  8  1  0
  9 10  1  0
 11  9  1  0
 12  9  1  0
 13  8  1  0
 14 13  2  0
 14  5  1  0
 15 14  1  0
 16 15  1  0
 17 16  2  0
 18 16  1  0
 19 18  1  0
 20 19  1  0
 21 20  1  0
 22 18  1  0
 23 22  1  0
 23 21  1  0
 23 24  1  6
 25 24  2  0
 26 24  1  0
M  END
>  <id>  (27) 
207448

>  <inchikey>  (27) 
STXHBHXJQBAUQV-VIFPVBQESA-N

>  <alias>  (27) 
A4381a

>  <name>  (27) 
A4381a

>  <smiles>  (27) 
NC(=O)[C@H]1CCCN(C(=O)Cc2cc(C(F)(F)F)ccc2C(F)(F)F)C1

>  <path>  (27) 
/opt/xchem-fragalysis-2/maxwin/2A_HIPPO/A71EV2A_P3only_20241212/aligned_files/A4381a/A4381a.pdb

>  <distance_score>  (27) 
None

>  <energy_score>  (27) 
None

>  <compound>  (27) 
STXHBHXJQBAUQV-UHFFFAOYSA-N

>  <compound_id>  (27) 
122572

>  <target>  (27) 
A71EV2A

$$$$
