ASAP-0034411_ASAP-0035404_DF001
ilSeeSAR  12112415133D 1   1.00000     0.00000     0
SeeSAR 13.1.1 ill13029
 44 46  0  0  0  0            999 V2000
    5.3728   10.8302   27.3231 Br  0  0  0  0  0  0  0  0  0  0  0  0
    6.8683   10.4055   26.1294 C   0  0  0  0  0  0  0  0  0  0  0  0
    7.5652   11.4270   25.4990 C   0  0  0  0  0  0  0  0  0  0  0  0
    8.6443   11.1358   24.6759 C   0  0  0  0  0  0  0  0  0  0  0  0
    8.9889    9.8115   24.4654 C   0  0  0  0  0  0  0  0  0  0  0  0
   10.3717    9.4074   23.4284 S   0  0  0  0  0  0  0  0  0  0  0  0
   10.7400    7.6773   23.0447 C   0  0  0  0  0  0  0  0  0  0  0  0
    8.2937    8.7817   25.0772 C   0  0  0  0  0  0  0  0  0  0  0  0
    7.2289    9.0908   25.9152 C   0  0  0  0  0  0  0  0  0  0  0  0
    9.3302   12.3872   24.1961 C   0  0  1  0  0  0  0  0  0  0  0  0
    9.1558   12.6178   22.6951 C   0  0  0  0  0  0  0  0  0  0  0  0
    8.3820   11.9468   22.0350 O   0  0  0  0  0  0  0  0  0  0  0  0
    9.8362   13.6409   22.1374 N   0  0  0  0  0  0  0  0  0  0  0  0
    9.6744   13.9716   20.7188 C   0  0  0  0  0  0  0  0  0  0  0  0
   11.0509   13.9917   20.0427 C   0  0  1  0  0  0  0  0  0  0  0  0
   10.8804   14.3499   18.5775 C   0  0  0  0  0  0  0  0  0  0  0  0
   10.2601   15.3591   18.2357 O   0  0  0  0  0  0  0  0  0  0  0  0
   11.3821   13.4881   17.7041 N   0  0  0  0  0  0  0  0  0  0  0  0
   12.0089   14.9643   20.7512 C   0  0  0  0  0  0  0  0  0  0  0  0
   12.1320   14.5818   22.2266 C   0  0  0  0  0  0  0  0  0  0  0  0
   10.7648   14.5253   22.8696 C   0  0  0  0  0  0  0  0  0  0  0  0
    8.6443   13.4935   25.0672 C   0  0  0  0  0  0  0  0  0  0  0  0
    7.3183   12.9090   25.5604 C   0  0  0  0  0  0  0  0  0  0  0  0
   11.6014    7.6279   22.4120 H   0  0  0  0  0  0  0  0  0  0  0  0
   10.9327    7.1440   23.9520 H   0  0  0  0  0  0  0  0  0  0  0  0
    9.9034    7.2373   22.5431 H   0  0  0  0  0  0  0  0  0  0  0  0
    8.5723    7.7626   24.9072 H   0  0  0  0  0  0  0  0  0  0  0  0
    6.6856    8.3049   26.3970 H   0  0  0  0  0  0  0  0  0  0  0  0
   10.3725   12.3386   24.4330 H   0  0  0  0  0  0  0  0  0  0  0  0
    9.2166   14.9343   20.6263 H   0  0  0  0  0  0  0  0  0  0  0  0
    9.0559   13.2358   20.2486 H   0  0  0  0  0  0  0  0  0  0  0  0
   11.4678   13.0080   20.1013 H   0  0  0  0  0  0  0  0  0  0  0  0
   11.2850   13.6565   16.7232 H   0  0  0  0  0  0  0  0  0  0  0  0
   11.8576   12.6694   18.0262 H   0  0  0  0  0  0  0  0  0  0  0  0
   11.6268   15.9607   20.6726 H   0  0  0  0  0  0  0  0  0  0  0  0
   12.9727   14.9144   20.2891 H   0  0  0  0  0  0  0  0  0  0  0  0
   12.7298   15.3115   22.7318 H   0  0  0  0  0  0  0  0  0  0  0  0
   12.5988   13.6222   22.3048 H   0  0  0  0  0  0  0  0  0  0  0  0
   10.8700   14.1607   23.8701 H   0  0  0  0  0  0  0  0  0  0  0  0
   10.3539   15.5130   22.8913 H   0  0  0  0  0  0  0  0  0  0  0  0
    8.4647   14.3681   24.4774 H   0  0  0  0  0  0  0  0  0  0  0  0
    9.2677   13.7463   25.8993 H   0  0  0  0  0  0  0  0  0  0  0  0
    7.1068   13.2234   26.5610 H   0  0  0  0  0  0  0  0  0  0  0  0
    6.5099   13.1920   24.9191 H   0  0  0  0  0  0  0  0  0  0  0  0
  1  2  1  0  0  0  0
  2  3  1  0  0  0  0
  2  9  2  0  0  0  0
  3  4  2  0  0  0  0
  3 23  1  0  0  0  0
  4  5  1  0  0  0  0
  4 10  1  0  0  0  0
  5  6  1  0  0  0  0
  5  8  2  0  0  0  0
  6  7  1  0  0  0  0
  8  9  1  0  0  0  0
 10 11  1  0  0  0  0
 10 22  1  0  0  0  0
 11 12  2  0  0  0  0
 11 13  1  0  0  0  0
 13 14  1  0  0  0  0
 13 21  1  0  0  0  0
 14 15  1  0  0  0  0
 15 16  1  0  0  0  0
 15 19  1  0  0  0  0
 16 17  2  0  0  0  0
 16 18  1  0  0  0  0
 19 20  1  0  0  0  0
 20 21  1  0  0  0  0
 22 23  1  0  0  0  0
  7 24  1  0  0  0  0
  7 25  1  0  0  0  0
  7 26  1  0  0  0  0
  8 27  1  0  0  0  0
  9 28  1  0  0  0  0
 10 29  1  0  0  0  0
 14 30  1  0  0  0  0
 14 31  1  0  0  0  0
 15 32  1  0  0  0  0
 18 33  1  0  0  0  0
 18 34  1  0  0  0  0
 19 35  1  0  0  0  0
 19 36  1  0  0  0  0
 20 37  1  0  0  0  0
 20 38  1  0  0  0  0
 21 39  1  0  0  0  0
 21 40  1  0  0  0  0
 22 41  1  0  0  0  0
 22 42  1  0  0  0  0
 23 43  1  0  0  0  0
 23 44  1  0  0  0  0
M  END
> <BIOSOLVEIT.HYDE_ATOM_SCORES [kJ/mol]>
# Atom-ID; Total; Rec-Desolv; Rec-IA; Lig-Desolv; Lig-IA
1;-1.2935;-0.7942;0.0000;-0.4992;0.0000
2;0.5483;1.0040;0.0000;-0.4556;0.0000
3;-0.5296;0.0000;0.0000;-0.5296;0.0000
4;-1.1468;-0.8053;0.0000;-0.3415;0.0000
5;-0.6563;0.0000;0.0000;-0.6563;0.0000
6;-3.5212;-2.1333;0.0000;-1.3879;0.0000
7;-6.9998;-2.4957;0.0000;-4.5041;0.0000
8;-3.5104;-1.3935;0.0000;-2.1169;0.0000
9;-1.8996;-0.6050;0.0000;-1.2946;0.0000
10;-0.2780;0.0000;0.0000;-0.2780;0.0000
11;0.0000;0.0000;0.0000;0.0000;0.0000
12;-0.7018;5.2318;-7.3023;10.3791;-9.0103
13;0.0000;0.0000;0.0000;0.0000;0.0000
14;-1.4048;0.0000;0.0000;-1.4048;0.0000
15;-0.5780;0.0000;0.0000;-0.5780;0.0000
16;-0.4633;0.0000;0.0000;-0.4633;0.0000
17;-6.7530;4.2076;-9.2245;10.3845;-12.1206
18;-2.2013;17.9510;-18.3730;7.9316;-9.7109
19;-2.4407;-0.9152;0.0000;-1.5256;0.0000
20;-3.0065;-1.8189;0.0000;-1.1875;0.0000
21;-1.1522;-0.7014;0.0000;-0.4507;0.0000
22;-0.2018;0.0000;0.0000;-0.2018;0.0000
23;-0.1981;0.0000;0.0000;-0.1981;0.0000

> <BIOSOLVEIT.HYDE_ESTIMATED_AFFINITY_LOWER_BOUNDARY [nM]>
17.315030

> <BIOSOLVEIT.HYDE_ESTIMATED_AFFINITY_UPPER_BOUNDARY [nM]>
1720.350573

> <BIOSOLVEIT.HYDE_LIGAND_EFFICIENCY range: ++, +, 0, -, -->
+

> <BIOSOLVEIT.HYDE_LIGAND_LIPOPHILIC_EFFICIENCY range: ++, +, 0, -, -->
0

> <BIOSOLVEIT.INTER_CLASH range: red, yellow, green>
green

> <BIOSOLVEIT.INTRA_CLASH range: red, yellow, green>
green

> <BIOSOLVEIT.LOGP>
2.9247

> <BIOSOLVEIT.MOLECULAR_WEIGHT>
397.334

> <BIOSOLVEIT.MOLECULE_CHECKSUM>
LTM4LjYwMzI7MS42Nzg0

> <BIOSOLVEIT.TORSION_QUALITY range: red, yellow, green, not rotatable>
green

> <BIOSOLVEIT.TPSA>
63.4

> <BIOSOLVEIT.OPTIBRIUM.2C9 pKi>
4.81963

> <BIOSOLVEIT.OPTIBRIUM.2D6 affinity category>
high

> <BIOSOLVEIT.OPTIBRIUM.BBB category>
+

> <BIOSOLVEIT.OPTIBRIUM.BBB log([brain]:[blood])>
-0.64172

> <BIOSOLVEIT.OPTIBRIUM.hERG pIC50>
4.37272

> <BIOSOLVEIT.OPTIBRIUM.HIA category>
+

> <BIOSOLVEIT.OPTIBRIUM.logD>
2.43409

> <BIOSOLVEIT.OPTIBRIUM.logP>
2.43409

> <BIOSOLVEIT.OPTIBRIUM.logS @ pH7.4>
2.10773

> <BIOSOLVEIT.OPTIBRIUM.logS>
2.10773

> <BIOSOLVEIT.OPTIBRIUM.P-gp category>
no

> <BIOSOLVEIT.OPTIBRIUM.PPB90 category>
low

$$$$
ASAP-0035404_DF002
ilSeeSAR  12112415133D 1   1.00000     0.00000     0
SeeSAR 13.1.1 ill13029
 41 43  0  0  0  0            999 V2000
    5.8895    9.5740   27.3250 Br  0  0  0  0  0  0  0  0  0  0  0  0
    7.2824    9.7984   25.9646 C   0  0  0  0  0  0  0  0  0  0  0  0
    7.5985   11.0963   25.5878 C   0  0  0  0  0  0  0  0  0  0  0  0
    8.5786   11.2878   24.6283 C   0  0  0  0  0  0  0  0  0  0  0  0
    9.1354   10.1124   24.1315 C   0  0  0  0  0  0  0  0  0  0  0  0
   10.3966   10.0721   22.8919 S   0  0  0  0  0  0  0  0  0  0  0  0
   10.7884    8.3157   23.0202 C   0  0  0  0  0  0  0  0  0  0  0  0
    9.5789    7.7193   23.7225 C   0  0  0  0  0  0  0  0  0  0  0  0
    8.8332    8.8088   24.4750 C   0  0  0  0  0  0  0  0  0  0  0  0
    7.8670    8.6489   25.4499 C   0  0  0  0  0  0  0  0  0  0  0  0
    8.9924   12.6748   24.1585 C   0  0  0  0  0  0  0  0  0  0  0  0
    8.7939   12.8795   22.6680 C   0  0  0  0  0  0  0  0  0  0  0  0
    8.0693   12.1491   22.0033 O   0  0  0  0  0  0  0  0  0  0  0  0
    9.5009   13.8841   22.1106 N   0  0  0  0  0  0  0  0  0  0  0  0
    9.4032   14.1562   20.6726 C   0  0  0  0  0  0  0  0  0  0  0  0
   10.7888   14.0874   20.0282 C   0  0  1  0  0  0  0  0  0  0  0  0
   10.7859   14.3057   18.5263 C   0  0  0  0  0  0  0  0  0  0  0  0
   10.2705   15.3071   18.0286 O   0  0  0  0  0  0  0  0  0  0  0  0
   11.4123   13.3863   17.8068 N   0  0  0  0  0  0  0  0  0  0  0  0
   11.6808   15.1111   20.7380 C   0  0  0  0  0  0  0  0  0  0  0  0
   11.7750   14.8140   22.2335 C   0  0  0  0  0  0  0  0  0  0  0  0
   10.3972   14.7827   22.8535 C   0  0  0  0  0  0  0  0  0  0  0  0
    7.0956   11.9313   26.0293 H   0  0  0  0  0  0  0  0  0  0  0  0
   11.6762    8.1652   23.5980 H   0  0  0  0  0  0  0  0  0  0  0  0
   10.9166    7.8828   22.0500 H   0  0  0  0  0  0  0  0  0  0  0  0
    9.9029    6.9687   24.4126 H   0  0  0  0  0  0  0  0  0  0  0  0
    8.9276    7.2792   22.9966 H   0  0  0  0  0  0  0  0  0  0  0  0
    7.5807    7.6774   25.7946 H   0  0  0  0  0  0  0  0  0  0  0  0
   10.0278   12.8175   24.3873 H   0  0  0  0  0  0  0  0  0  0  0  0
    8.4076   13.4011   24.6833 H   0  0  0  0  0  0  0  0  0  0  0  0
    8.9922   15.1330   20.5245 H   0  0  0  0  0  0  0  0  0  0  0  0
    8.7648   13.4280   20.2173 H   0  0  0  0  0  0  0  0  0  0  0  0
   11.1910   13.1142   20.2177 H   0  0  0  0  0  0  0  0  0  0  0  0
   11.4632   13.4785   16.8123 H   0  0  0  0  0  0  0  0  0  0  0  0
   11.8343   12.6000   18.2582 H   0  0  0  0  0  0  0  0  0  0  0  0
   11.2683   16.0888   20.6012 H   0  0  0  0  0  0  0  0  0  0  0  0
   12.6618   15.0751   20.3120 H   0  0  0  0  0  0  0  0  0  0  0  0
   12.3577   15.5756   22.7080 H   0  0  0  0  0  0  0  0  0  0  0  0
   12.2466   13.8640   22.3749 H   0  0  0  0  0  0  0  0  0  0  0  0
   10.4767   14.4397   23.8638 H   0  0  0  0  0  0  0  0  0  0  0  0
    9.9873   15.7711   22.8435 H   0  0  0  0  0  0  0  0  0  0  0  0
  1  2  1  0  0  0  0
  2  3  2  0  0  0  0
  2 10  1  0  0  0  0
  3  4  1  0  0  0  0
  4  5  2  0  0  0  0
  4 11  1  0  0  0  0
  5  6  1  0  0  0  0
  5  9  1  0  0  0  0
  6  7  1  0  0  0  0
  7  8  1  0  0  0  0
  8  9  1  0  0  0  0
  9 10  2  0  0  0  0
 11 12  1  0  0  0  0
 12 13  2  0  0  0  0
 12 14  1  0  0  0  0
 14 15  1  0  0  0  0
 14 22  1  0  0  0  0
 15 16  1  0  0  0  0
 16 17  1  0  0  0  0
 16 20  1  0  0  0  0
 17 18  2  0  0  0  0
 17 19  1  0  0  0  0
 20 21  1  0  0  0  0
 21 22  1  0  0  0  0
  3 23  1  0  0  0  0
  7 24  1  0  0  0  0
  7 25  1  0  0  0  0
  8 26  1  0  0  0  0
  8 27  1  0  0  0  0
 10 28  1  0  0  0  0
 11 29  1  0  0  0  0
 11 30  1  0  0  0  0
 15 31  1  0  0  0  0
 15 32  1  0  0  0  0
 16 33  1  0  0  0  0
 19 34  1  0  0  0  0
 19 35  1  0  0  0  0
 20 36  1  0  0  0  0
 20 37  1  0  0  0  0
 21 38  1  0  0  0  0
 21 39  1  0  0  0  0
 22 40  1  0  0  0  0
 22 41  1  0  0  0  0
M  END
> <BIOSOLVEIT.HYDE_ATOM_SCORES [kJ/mol]>
# Atom-ID; Total; Rec-Desolv; Rec-IA; Lig-Desolv; Lig-IA
1;-1.3477;-0.5984;0.0000;-0.7493;0.0000
2;-1.2815;-0.7543;0.0000;-0.5272;0.0000
3;0.2300;1.0801;0.0000;-0.8501;0.0000
4;-0.2354;0.0000;0.0000;-0.2354;0.0000
5;-1.6855;-1.0275;0.0000;-0.6580;0.0000
6;-2.5027;-0.8785;0.0000;-1.6242;0.0000
7;-5.2594;-2.7372;0.0000;-2.5222;0.0000
8;-2.2359;0.4113;0.0000;-2.6472;0.0000
9;-1.8625;-1.4380;0.0000;-0.4245;0.0000
10;-2.9101;-0.9297;0.0000;-1.9804;0.0000
11;-0.1951;0.0000;0.0000;-0.1951;0.0000
12;0.0000;0.0000;0.0000;0.0000;0.0000
13;-2.5459;5.8697;-8.4283;10.4123;-10.3996
14;0.0000;0.0000;0.0000;0.0000;0.0000
15;-1.2639;0.0000;0.0000;-1.2639;0.0000
16;-0.5782;0.0000;0.0000;-0.5782;0.0000
17;-0.4944;0.0000;0.0000;-0.4944;0.0000
18;-6.6425;4.3215;-9.2237;10.3786;-12.1188
19;-4.3718;17.0555;-19.5443;7.9607;-9.8436
20;-2.1120;-0.7099;0.0000;-1.4021;0.0000
21;-2.7169;-1.4923;0.0000;-1.2245;0.0000
22;-1.2537;-0.7429;0.0000;-0.5108;0.0000

> <BIOSOLVEIT.HYDE_ESTIMATED_AFFINITY_LOWER_BOUNDARY [nM]>
5.361920

> <BIOSOLVEIT.HYDE_ESTIMATED_AFFINITY_UPPER_BOUNDARY [nM]>
532.738469

> <BIOSOLVEIT.HYDE_LIGAND_EFFICIENCY range: ++, +, 0, -, -->
+

> <BIOSOLVEIT.HYDE_LIGAND_LIPOPHILIC_EFFICIENCY range: ++, +, 0, -, -->
0

> <BIOSOLVEIT.INTER_CLASH range: red, yellow, green>
green

> <BIOSOLVEIT.INTRA_CLASH range: red, yellow, green>
green

> <BIOSOLVEIT.LOGP>
2.3637

> <BIOSOLVEIT.MOLECULAR_WEIGHT>
383.307

> <BIOSOLVEIT.MOLECULE_CHECKSUM>
LTQxLjUwOTE7MS44ODY3OA==

> <BIOSOLVEIT.TORSION_QUALITY range: red, yellow, green, not rotatable>
green

> <BIOSOLVEIT.TPSA>
63.4

> <BIOSOLVEIT.OPTIBRIUM.2C9 pKi>
4.87156

> <BIOSOLVEIT.OPTIBRIUM.2D6 affinity category>
high

> <BIOSOLVEIT.OPTIBRIUM.BBB category>
+

> <BIOSOLVEIT.OPTIBRIUM.BBB log([brain]:[blood])>
-0.601309

> <BIOSOLVEIT.OPTIBRIUM.hERG pIC50>
4.28892

> <BIOSOLVEIT.OPTIBRIUM.HIA category>
+

> <BIOSOLVEIT.OPTIBRIUM.logD>
2.21918

> <BIOSOLVEIT.OPTIBRIUM.logP>
2.21918

> <BIOSOLVEIT.OPTIBRIUM.logS @ pH7.4>
2.53721

> <BIOSOLVEIT.OPTIBRIUM.logS>
2.53721

> <BIOSOLVEIT.OPTIBRIUM.P-gp category>
no

> <BIOSOLVEIT.OPTIBRIUM.PPB90 category>
low

$$$$
ASAP-0035404_DF003
ilSeeSAR  12112415133D 1   1.00000     0.00000     0
SeeSAR 13.1.1 ill13029
 44 46  0  0  0  0            999 V2000
   10.3214    9.5161   23.3612 S   0  0  0  0  0  0  0  0  0  0  0  0
    9.0119    9.8917   24.4993 C   0  0  0  0  0  0  0  0  0  0  0  0
    8.7376   11.2139   24.8319 C   0  0  0  0  0  0  0  0  0  0  0  0
    7.7148   11.5156   25.7209 C   0  0  0  0  0  0  0  0  0  0  0  0
    6.9908   10.4584   26.2548 C   0  0  0  0  0  0  0  0  0  0  0  0
    7.2549    9.1467   25.9325 C   0  0  0  0  0  0  0  0  0  0  0  0
    6.3630    8.3405   26.6214 N   0  0  0  0  0  0  0  0  0  0  0  0
    5.5423    9.1629   27.3753 C   0  0  0  0  0  0  0  0  0  0  0  0
    5.8945   10.4644   27.1778 C   0  0  0  0  0  0  0  0  0  0  0  0
    8.2777    8.8434   25.0414 C   0  0  0  0  0  0  0  0  0  0  0  0
    9.5416   12.3587   24.2372 C   0  0  0  0  0  0  0  0  0  0  0  0
    9.2152   12.6170   22.7780 C   0  0  0  0  0  0  0  0  0  0  0  0
    8.4688   11.8846   22.1403 O   0  0  0  0  0  0  0  0  0  0  0  0
    9.8344   13.6737   22.2125 N   0  0  0  0  0  0  0  0  0  0  0  0
    9.6098   14.0015   20.8004 C   0  0  0  0  0  0  0  0  0  0  0  0
   10.9404   14.0198   20.0461 C   0  0  1  0  0  0  0  0  0  0  0  0
   10.8072   14.3006   18.5605 C   0  0  0  0  0  0  0  0  0  0  0  0
   10.2393   15.3137   18.1515 O   0  0  0  0  0  0  0  0  0  0  0  0
   11.3815   13.4220   17.7519 N   0  0  0  0  0  0  0  0  0  0  0  0
   11.8457   15.0504   20.7288 C   0  0  0  0  0  0  0  0  0  0  0  0
   12.0722   14.6950   22.1970 C   0  0  0  0  0  0  0  0  0  0  0  0
   10.7515   14.5783   22.9220 C   0  0  0  0  0  0  0  0  0  0  0  0
   10.2606    7.7332   23.2105 C   0  0  0  0  0  0  0  0  0  0  0  0
    7.4922   12.5282   25.9854 H   0  0  0  0  0  0  0  0  0  0  0  0
    6.3196    7.3422   26.5813 H   0  0  0  0  0  0  0  0  0  0  0  0
    4.7527    8.8277   28.0149 H   0  0  0  0  0  0  0  0  0  0  0  0
    5.4406   11.3240   27.6250 H   0  0  0  0  0  0  0  0  0  0  0  0
    8.4942    7.8288   24.7794 H   0  0  0  0  0  0  0  0  0  0  0  0
   10.5821   12.1221   24.3172 H   0  0  0  0  0  0  0  0  0  0  0  0
    9.3340   13.2475   24.7957 H   0  0  0  0  0  0  0  0  0  0  0  0
    9.1498   14.9649   20.7299 H   0  0  0  0  0  0  0  0  0  0  0  0
    8.9662   13.2661   20.3647 H   0  0  0  0  0  0  0  0  0  0  0  0
   11.3949   13.0578   20.1588 H   0  0  0  0  0  0  0  0  0  0  0  0
   11.3465   13.5566   16.7616 H   0  0  0  0  0  0  0  0  0  0  0  0
   11.8498   12.6244   18.1319 H   0  0  0  0  0  0  0  0  0  0  0  0
   11.3849   16.0142   20.6694 H   0  0  0  0  0  0  0  0  0  0  0  0
   12.7895   15.0747   20.2252 H   0  0  0  0  0  0  0  0  0  0  0  0
   12.6607   15.4606   22.6580 H   0  0  0  0  0  0  0  0  0  0  0  0
   12.5910   13.7612   22.2575 H   0  0  0  0  0  0  0  0  0  0  0  0
   10.9260   14.1969   23.9064 H   0  0  0  0  0  0  0  0  0  0  0  0
   10.3032   15.5475   22.9894 H   0  0  0  0  0  0  0  0  0  0  0  0
   11.0236    7.4063   22.5352 H   0  0  0  0  0  0  0  0  0  0  0  0
   10.4196    7.2885   24.1706 H   0  0  0  0  0  0  0  0  0  0  0  0
    9.3026    7.4394   22.8355 H   0  0  0  0  0  0  0  0  0  0  0  0
  1  2  1  0  0  0  0
  1 23  1  0  0  0  0
  2  3  2  0  0  0  0
  2 10  1  0  0  0  0
  3  4  1  0  0  0  0
  3 11  1  0  0  0  0
  4  5  2  0  0  0  0
  5  6  1  0  0  0  0
  5  9  1  0  0  0  0
  6  7  1  0  0  0  0
  6 10  2  0  0  0  0
  7  8  1  0  0  0  0
  8  9  2  0  0  0  0
 11 12  1  0  0  0  0
 12 13  2  0  0  0  0
 12 14  1  0  0  0  0
 14 15  1  0  0  0  0
 14 22  1  0  0  0  0
 15 16  1  0  0  0  0
 16 17  1  0  0  0  0
 16 20  1  0  0  0  0
 17 18  2  0  0  0  0
 17 19  1  0  0  0  0
 20 21  1  0  0  0  0
 21 22  1  0  0  0  0
  4 24  1  0  0  0  0
  7 25  1  0  0  0  0
  8 26  1  0  0  0  0
  9 27  1  0  0  0  0
 10 28  1  0  0  0  0
 11 29  1  0  0  0  0
 11 30  1  0  0  0  0
 15 31  1  0  0  0  0
 15 32  1  0  0  0  0
 16 33  1  0  0  0  0
 19 34  1  0  0  0  0
 19 35  1  0  0  0  0
 20 36  1  0  0  0  0
 20 37  1  0  0  0  0
 21 38  1  0  0  0  0
 21 39  1  0  0  0  0
 22 40  1  0  0  0  0
 22 41  1  0  0  0  0
 23 42  1  0  0  0  0
 23 43  1  0  0  0  0
 23 44  1  0  0  0  0
M  END
> <BIOSOLVEIT.HYDE_ATOM_SCORES [kJ/mol]>
# Atom-ID; Total; Rec-Desolv; Rec-IA; Lig-Desolv; Lig-IA
1;-3.4377;-2.1831;0.0000;-1.2546;0.0000
2;-0.4760;-0.0287;0.0000;-0.4472;0.0000
3;-0.9442;-0.7433;0.0000;-0.2009;0.0000
4;-0.6540;0.0000;0.0000;-0.6540;0.0000
5;0.3999;0.8088;0.0000;-0.4089;0.0000
6;-1.1104;-0.4646;0.0000;-0.6458;0.0000
7;0.1656;1.3125;-1.5982;6.9278;-6.4765
8;-1.4188;-0.9870;0.0000;-0.4318;0.0000
9;-0.1986;0.0000;0.0000;-0.1986;0.0000
10;-4.8581;-2.6692;0.0000;-2.1889;0.0000
11;-0.4263;0.0000;0.0000;-0.4263;0.0000
12;0.0000;0.0000;0.0000;0.0000;0.0000
13;1.3162;5.1178;-6.3417;10.3652;-7.8250
14;0.0000;0.0000;0.0000;0.0000;0.0000
15;-1.2309;0.0000;0.0000;-1.2309;0.0000
16;-0.6482;0.0000;0.0000;-0.6482;0.0000
17;-0.4919;0.0000;0.0000;-0.4919;0.0000
18;-6.9438;4.1340;-9.2622;10.3865;-12.2021
19;-3.5857;17.1330;-18.8679;7.9503;-9.8011
20;-2.4390;-0.9081;0.0000;-1.5309;0.0000
21;-3.0443;-1.8189;0.0000;-1.2253;0.0000
22;-1.1477;-0.7014;0.0000;-0.4463;0.0000
23;-5.0206;-0.9890;0.0000;-4.0316;0.0000

> <BIOSOLVEIT.HYDE_ESTIMATED_AFFINITY_LOWER_BOUNDARY [nM]>
41.967306

> <BIOSOLVEIT.HYDE_ESTIMATED_AFFINITY_UPPER_BOUNDARY [nM]>
4169.699984

> <BIOSOLVEIT.HYDE_LIGAND_EFFICIENCY range: ++, +, 0, -, -->
0

> <BIOSOLVEIT.HYDE_LIGAND_LIPOPHILIC_EFFICIENCY range: ++, +, 0, -, -->
0

> <BIOSOLVEIT.INTER_CLASH range: red, yellow, green>
green

> <BIOSOLVEIT.INTRA_CLASH range: red, yellow, green>
green

> <BIOSOLVEIT.LOGP>
2.1562

> <BIOSOLVEIT.MOLECULAR_WEIGHT>
331.437

> <BIOSOLVEIT.MOLECULE_CHECKSUM>
LTM2LjQwODU7MS41ODI5OA==

> <BIOSOLVEIT.TORSION_QUALITY range: red, yellow, green, not rotatable>
green

> <BIOSOLVEIT.TPSA>
79.19

> <BIOSOLVEIT.OPTIBRIUM.2C9 pKi>
4.65847

> <BIOSOLVEIT.OPTIBRIUM.2D6 affinity category>
low

> <BIOSOLVEIT.OPTIBRIUM.BBB category>
-

> <BIOSOLVEIT.OPTIBRIUM.BBB log([brain]:[blood])>
-0.97895

> <BIOSOLVEIT.OPTIBRIUM.hERG pIC50>
3.97802

> <BIOSOLVEIT.OPTIBRIUM.HIA category>
+

> <BIOSOLVEIT.OPTIBRIUM.logD>
1.35771

> <BIOSOLVEIT.OPTIBRIUM.logP>
1.35771

> <BIOSOLVEIT.OPTIBRIUM.logS @ pH7.4>
2.94008

> <BIOSOLVEIT.OPTIBRIUM.logS>
2.94008

> <BIOSOLVEIT.OPTIBRIUM.P-gp category>
yes

> <BIOSOLVEIT.OPTIBRIUM.PPB90 category>
low

$$$$
ASAP-0035404_DF004
ilSeeSAR  12112415133D 1   1.00000     0.00000     0
SeeSAR 13.1.1 ill13029
 38 40  0  0  0  0            999 V2000
    5.7557   10.3646   27.4973 Br  0  0  0  0  0  0  0  0  0  0  0  0
    7.1727   10.2087   26.1522 C   0  0  0  0  0  0  0  0  0  0  0  0
    7.6152    8.9698   25.6949 C   0  0  0  0  0  0  0  0  0  0  0  0
    8.6231    8.8539   24.7416 C   0  0  0  0  0  0  0  0  0  0  0  0
    9.2434    7.7671   24.1205 N   0  0  0  0  0  0  0  0  0  0  0  0
   10.1911    8.0434   23.2406 C   0  0  0  0  0  0  0  0  0  0  0  0
   10.3194    9.7569   23.1730 S   0  0  0  0  0  0  0  0  0  0  0  0
    9.0972   10.0826   24.3371 C   0  0  0  0  0  0  0  0  0  0  0  0
    8.7135   11.3506   24.7372 C   0  0  0  0  0  0  0  0  0  0  0  0
    7.7079   11.4011   25.6847 C   0  0  0  0  0  0  0  0  0  0  0  0
    9.3462   12.6173   24.1823 C   0  0  0  0  0  0  0  0  0  0  0  0
    9.0865   12.8091   22.6995 C   0  0  0  0  0  0  0  0  0  0  0  0
    8.3745   12.0439   22.0609 O   0  0  0  0  0  0  0  0  0  0  0  0
    9.7255   13.8447   22.1173 N   0  0  0  0  0  0  0  0  0  0  0  0
    9.5650   14.1088   20.6834 C   0  0  0  0  0  0  0  0  0  0  0  0
   10.9291   14.1040   19.9911 C   0  0  1  0  0  0  0  0  0  0  0  0
   10.8637   14.3186   18.4901 C   0  0  0  0  0  0  0  0  0  0  0  0
   10.3357   15.3232   18.0122 O   0  0  0  0  0  0  0  0  0  0  0  0
   11.4509   13.3922   17.7471 N   0  0  0  0  0  0  0  0  0  0  0  0
   11.7959   15.1701   20.6689 C   0  0  0  0  0  0  0  0  0  0  0  0
   11.9560   14.8811   22.1603 C   0  0  0  0  0  0  0  0  0  0  0  0
   10.6036   14.7862   22.8279 C   0  0  0  0  0  0  0  0  0  0  0  0
    7.1674    8.0810   26.0879 H   0  0  0  0  0  0  0  0  0  0  0  0
   10.7668    7.3373   22.6793 H   0  0  0  0  0  0  0  0  0  0  0  0
    7.3493   12.3405   26.0502 H   0  0  0  0  0  0  0  0  0  0  0  0
   10.4034   12.5676   24.3397 H   0  0  0  0  0  0  0  0  0  0  0  0
    8.9461   13.4576   24.7101 H   0  0  0  0  0  0  0  0  0  0  0  0
    9.1037   15.0648   20.5492 H   0  0  0  0  0  0  0  0  0  0  0  0
    8.9464   13.3503   20.2511 H   0  0  0  0  0  0  0  0  0  0  0  0
   11.3832   13.1513   20.1670 H   0  0  0  0  0  0  0  0  0  0  0  0
   11.4598   13.4816   16.7511 H   0  0  0  0  0  0  0  0  0  0  0  0
   11.8853   12.6035   18.1821 H   0  0  0  0  0  0  0  0  0  0  0  0
   11.3330   16.1270   20.5459 H   0  0  0  0  0  0  0  0  0  0  0  0
   12.7619   15.1795   20.2088 H   0  0  0  0  0  0  0  0  0  0  0  0
   12.5183   15.6705   22.6139 H   0  0  0  0  0  0  0  0  0  0  0  0
   12.4767   13.9548   22.2857 H   0  0  0  0  0  0  0  0  0  0  0  0
   10.7343   14.4494   23.8352 H   0  0  0  0  0  0  0  0  0  0  0  0
   10.1475   15.7541   22.8319 H   0  0  0  0  0  0  0  0  0  0  0  0
  1  2  1  0  0  0  0
  2  3  1  0  0  0  0
  2 10  2  0  0  0  0
  3  4  2  0  0  0  0
  4  5  1  0  0  0  0
  4  8  1  0  0  0  0
  5  6  2  0  0  0  0
  6  7  1  0  0  0  0
  7  8  1  0  0  0  0
  8  9  2  0  0  0  0
  9 10  1  0  0  0  0
  9 11  1  0  0  0  0
 11 12  1  0  0  0  0
 12 13  2  0  0  0  0
 12 14  1  0  0  0  0
 14 15  1  0  0  0  0
 14 22  1  0  0  0  0
 15 16  1  0  0  0  0
 16 17  1  0  0  0  0
 16 20  1  0  0  0  0
 17 18  2  0  0  0  0
 17 19  1  0  0  0  0
 20 21  1  0  0  0  0
 21 22  1  0  0  0  0
  3 23  1  0  0  0  0
  6 24  1  0  0  0  0
 10 25  1  0  0  0  0
 11 26  1  0  0  0  0
 11 27  1  0  0  0  0
 15 28  1  0  0  0  0
 15 29  1  0  0  0  0
 16 30  1  0  0  0  0
 19 31  1  0  0  0  0
 19 32  1  0  0  0  0
 20 33  1  0  0  0  0
 20 34  1  0  0  0  0
 21 35  1  0  0  0  0
 21 36  1  0  0  0  0
 22 37  1  0  0  0  0
 22 38  1  0  0  0  0
M  END
> <BIOSOLVEIT.HYDE_ATOM_SCORES [kJ/mol]>
# Atom-ID; Total; Rec-Desolv; Rec-IA; Lig-Desolv; Lig-IA
1;-1.1981;-0.7105;0.0000;-0.4875;0.0000
2;0.8225;1.2420;0.0000;-0.4195;0.0000
3;-3.1500;-1.3957;0.0000;-1.7543;0.0000
4;-1.6371;-0.9466;0.0000;-0.6905;0.0000
5;-4.8330;5.7673;-9.2283;6.7116;-8.0836
6;-3.3774;-1.4434;0.0000;-1.9340;0.0000
7;-2.8576;-1.2624;0.0000;-1.5952;0.0000
8;-1.5814;-0.9507;0.0000;-0.6307;0.0000
9;-0.8795;-0.6808;0.0000;-0.1987;0.0000
10;-0.7157;0.0000;0.0000;-0.7157;0.0000
11;-0.3811;0.0000;0.0000;-0.3811;0.0000
12;0.0000;0.0000;0.0000;0.0000;0.0000
13;-1.6370;5.0875;-7.6678;10.4045;-9.4612
14;0.0000;0.0000;0.0000;0.0000;0.0000
15;-1.4040;0.0000;0.0000;-1.4040;0.0000
16;-0.6658;0.0000;0.0000;-0.6658;0.0000
17;-0.4403;0.0000;0.0000;-0.4403;0.0000
18;-6.6060;4.1340;-9.1498;10.3688;-11.9591
19;-4.2555;17.0536;-19.3721;7.9220;-9.8590
20;-2.3546;-0.9697;0.0000;-1.3849;0.0000
21;-2.9873;-1.6798;0.0000;-1.3075;0.0000
22;-1.1707;-0.7014;0.0000;-0.4693;0.0000

> <BIOSOLVEIT.HYDE_ESTIMATED_AFFINITY_LOWER_BOUNDARY [nM]>
5.305156

> <BIOSOLVEIT.HYDE_ESTIMATED_AFFINITY_UPPER_BOUNDARY [nM]>
527.098613

> <BIOSOLVEIT.HYDE_LIGAND_EFFICIENCY range: ++, +, 0, -, -->
+

> <BIOSOLVEIT.HYDE_LIGAND_LIPOPHILIC_EFFICIENCY range: ++, +, 0, -, -->
0

> <BIOSOLVEIT.INTER_CLASH range: red, yellow, green>
green

> <BIOSOLVEIT.INTRA_CLASH range: red, yellow, green>
green

> <BIOSOLVEIT.LOGP>
2.3252

> <BIOSOLVEIT.MOLECULAR_WEIGHT>
382.279

> <BIOSOLVEIT.MOLECULE_CHECKSUM>
LTQxLjUzNTU7MS44ODc5OA==

> <BIOSOLVEIT.TORSION_QUALITY range: red, yellow, green, not rotatable>
green

> <BIOSOLVEIT.TPSA>
76.29

> <BIOSOLVEIT.OPTIBRIUM.2C9 pKi>
4.68408

> <BIOSOLVEIT.OPTIBRIUM.2D6 affinity category>
high

> <BIOSOLVEIT.OPTIBRIUM.BBB category>
-

> <BIOSOLVEIT.OPTIBRIUM.BBB log([brain]:[blood])>
-1.14798

> <BIOSOLVEIT.OPTIBRIUM.hERG pIC50>
4.54827

> <BIOSOLVEIT.OPTIBRIUM.HIA category>
+

> <BIOSOLVEIT.OPTIBRIUM.logD>
2.00196

> <BIOSOLVEIT.OPTIBRIUM.logP>
2.00196

> <BIOSOLVEIT.OPTIBRIUM.logS @ pH7.4>
2.73879

> <BIOSOLVEIT.OPTIBRIUM.logS>
2.73879

> <BIOSOLVEIT.OPTIBRIUM.P-gp category>
no

> <BIOSOLVEIT.OPTIBRIUM.PPB90 category>
low

$$$$
ASAP-0034411_ASAP-0035404_DF005
ilSeeSAR  12112415133D 1   1.00000     0.00000     0
SeeSAR 13.1.1 ill13029
 47 49  0  0  0  0            999 V2000
    5.2408   10.7022   27.0245 Br  0  0  0  0  0  0  0  0  0  0  0  0
    6.8726   10.3770   25.9888 C   0  0  0  0  0  0  0  0  0  0  0  0
    7.6612   11.4392   25.5744 C   0  0  0  0  0  0  0  0  0  0  0  0
    8.8055   11.1762   24.8229 C   0  0  0  0  0  0  0  0  0  0  0  0
    9.1865    9.8674   24.5256 C   0  0  0  0  0  0  0  0  0  0  0  0
   10.6358    9.4472   23.5908 S   0  0  0  0  0  0  0  0  0  0  0  0
   10.8845    7.7469   23.0221 C   0  0  0  0  0  0  0  0  0  0  0  0
    8.3935    8.8118   24.9689 C   0  0  0  0  0  0  0  0  0  0  0  0
    7.2363    9.0681   25.6953 C   0  0  0  0  0  0  0  0  0  0  0  0
    9.6810   12.3088   24.3116 C   0  0  1  0  0  0  0  0  0  0  0  0
    9.3997   12.5895   22.8360 C   0  0  0  0  0  0  0  0  0  0  0  0
    8.5253   11.9941   22.2315 O   0  0  0  0  0  0  0  0  0  0  0  0
   10.1060   13.5740   22.2420 N   0  0  0  0  0  0  0  0  0  0  0  0
    9.8516   13.9517   20.8490 C   0  0  0  0  0  0  0  0  0  0  0  0
   11.1643   13.8881   20.0585 C   0  0  1  0  0  0  0  0  0  0  0  0
   10.8993   14.2949   18.6203 C   0  0  0  0  0  0  0  0  0  0  0  0
   10.2696   15.3208   18.3534 O   0  0  0  0  0  0  0  0  0  0  0  0
   11.3302   13.4568   17.6881 N   0  0  0  0  0  0  0  0  0  0  0  0
   12.2485   14.7696   20.7013 C   0  0  0  0  0  0  0  0  0  0  0  0
   12.4654   14.3417   22.1532 C   0  0  0  0  0  0  0  0  0  0  0  0
   11.1564   14.3691   22.9092 C   0  0  0  0  0  0  0  0  0  0  0  0
    9.3962   13.6067   25.0463 C   0  0  0  0  0  0  0  0  0  0  0  0
    7.9091   13.9160   25.0365 C   0  0  0  0  0  0  0  0  0  0  0  0
    7.2780   12.8697   25.9380 C   0  0  0  0  0  0  0  0  0  0  0  0
   11.8045    7.6833   22.4795 H   0  0  0  0  0  0  0  0  0  0  0  0
   10.9219    7.0904   23.8662 H   0  0  0  0  0  0  0  0  0  0  0  0
   10.0739    7.4620   22.3843 H   0  0  0  0  0  0  0  0  0  0  0  0
    8.6751    7.8030   24.7502 H   0  0  0  0  0  0  0  0  0  0  0  0
    6.6245    8.2562   26.0293 H   0  0  0  0  0  0  0  0  0  0  0  0
   10.7112   12.0474   24.4350 H   0  0  0  0  0  0  0  0  0  0  0  0
    9.4612   14.9473   20.8141 H   0  0  0  0  0  0  0  0  0  0  0  0
    9.1425   13.2754   20.4192 H   0  0  0  0  0  0  0  0  0  0  0  0
   11.5096   12.8753   20.0624 H   0  0  0  0  0  0  0  0  0  0  0  0
   11.1689   13.6578   16.7218 H   0  0  0  0  0  0  0  0  0  0  0  0
   11.8166   12.6236   17.9511 H   0  0  0  0  0  0  0  0  0  0  0  0
   11.9371   15.7929   20.6746 H   0  0  0  0  0  0  0  0  0  0  0  0
   13.1637   14.6610   20.1577 H   0  0  0  0  0  0  0  0  0  0  0  0
   13.1565   15.0125   22.6194 H   0  0  0  0  0  0  0  0  0  0  0  0
   12.8637   13.3488   22.1729 H   0  0  0  0  0  0  0  0  0  0  0  0
   11.3172   13.9725   23.8898 H   0  0  0  0  0  0  0  0  0  0  0  0
   10.8240   15.3834   22.9847 H   0  0  0  0  0  0  0  0  0  0  0  0
    9.9237   14.4046   24.5667 H   0  0  0  0  0  0  0  0  0  0  0  0
    9.7294   13.5170   26.0592 H   0  0  0  0  0  0  0  0  0  0  0  0
    7.5170   13.8414   24.0438 H   0  0  0  0  0  0  0  0  0  0  0  0
    7.7278   14.8988   25.4187 H   0  0  0  0  0  0  0  0  0  0  0  0
    7.5894   13.0578   26.9443 H   0  0  0  0  0  0  0  0  0  0  0  0
    6.2142   12.9624   25.8707 H   0  0  0  0  0  0  0  0  0  0  0  0
  1  2  1  0  0  0  0
  2  3  1  0  0  0  0
  2  9  2  0  0  0  0
  3  4  2  0  0  0  0
  3 24  1  0  0  0  0
  4  5  1  0  0  0  0
  4 10  1  0  0  0  0
  5  6  1  0  0  0  0
  5  8  2  0  0  0  0
  6  7  1  0  0  0  0
  8  9  1  0  0  0  0
 10 11  1  0  0  0  0
 10 22  1  0  0  0  0
 11 12  2  0  0  0  0
 11 13  1  0  0  0  0
 13 14  1  0  0  0  0
 13 21  1  0  0  0  0
 14 15  1  0  0  0  0
 15 16  1  0  0  0  0
 15 19  1  0  0  0  0
 16 17  2  0  0  0  0
 16 18  1  0  0  0  0
 19 20  1  0  0  0  0
 20 21  1  0  0  0  0
 22 23  1  0  0  0  0
 23 24  1  0  0  0  0
  7 25  1  0  0  0  0
  7 26  1  0  0  0  0
  7 27  1  0  0  0  0
  8 28  1  0  0  0  0
  9 29  1  0  0  0  0
 10 30  1  0  0  0  0
 14 31  1  0  0  0  0
 14 32  1  0  0  0  0
 15 33  1  0  0  0  0
 18 34  1  0  0  0  0
 18 35  1  0  0  0  0
 19 36  1  0  0  0  0
 19 37  1  0  0  0  0
 20 38  1  0  0  0  0
 20 39  1  0  0  0  0
 21 40  1  0  0  0  0
 21 41  1  0  0  0  0
 22 42  1  0  0  0  0
 22 43  1  0  0  0  0
 23 44  1  0  0  0  0
 23 45  1  0  0  0  0
 24 46  1  0  0  0  0
 24 47  1  0  0  0  0
M  END
> <BIOSOLVEIT.HYDE_ATOM_SCORES [kJ/mol]>
# Atom-ID; Total; Rec-Desolv; Rec-IA; Lig-Desolv; Lig-IA
1;-1.5345;-0.8772;0.0000;-0.6572;0.0000
2;0.1911;0.6731;0.0000;-0.4820;0.0000
3;-0.4531;0.0000;0.0000;-0.4531;0.0000
4;-1.1279;-0.7926;0.0000;-0.3353;0.0000
5;-1.1194;-0.7001;0.0000;-0.4193;0.0000
6;-3.5308;-2.2013;0.0000;-1.3294;0.0000
7;-7.0146;-2.4957;0.0000;-4.5189;0.0000
8;-2.8747;-0.6519;0.0000;-2.2228;0.0000
9;-2.0041;-0.5965;0.0000;-1.4076;0.0000
10;-0.6216;-0.2450;0.0000;-0.3766;0.0000
11;0.0000;0.0000;0.0000;0.0000;0.0000
12;2.3434;5.3106;-5.9836;10.3995;-7.3831
13;0.0000;0.0000;0.0000;0.0000;0.0000
14;-1.0748;0.0000;0.0000;-1.0748;0.0000
15;-0.5218;0.0000;0.0000;-0.5218;0.0000
16;-0.4025;0.0000;0.0000;-0.4025;0.0000
17;-7.4363;5.8999;-11.2875;10.4059;-12.4547
18;-1.2714;17.9404;-17.6040;7.9545;-9.5623
19;-2.6683;-1.0343;0.0000;-1.6340;0.0000
20;-3.4843;-1.9174;0.0000;-1.5669;0.0000
21;-0.9686;-0.5834;0.0000;-0.3852;0.0000
22;-0.3576;0.0000;0.0000;-0.3576;0.0000
23;0.0000;0.0000;0.0000;0.0000;0.0000
24;-0.1743;0.0000;0.0000;-0.1743;0.0000

> <BIOSOLVEIT.HYDE_ESTIMATED_AFFINITY_LOWER_BOUNDARY [nM]>
43.492199

> <BIOSOLVEIT.HYDE_ESTIMATED_AFFINITY_UPPER_BOUNDARY [nM]>
4321.207071

> <BIOSOLVEIT.HYDE_LIGAND_EFFICIENCY range: ++, +, 0, -, -->
0

> <BIOSOLVEIT.HYDE_LIGAND_LIPOPHILIC_EFFICIENCY range: ++, +, 0, -, -->
-

> <BIOSOLVEIT.INTER_CLASH range: red, yellow, green>
green

> <BIOSOLVEIT.INTRA_CLASH range: red, yellow, green>
red

> <BIOSOLVEIT.LOGP>
3.3148

> <BIOSOLVEIT.MOLECULAR_WEIGHT>
411.361

> <BIOSOLVEIT.MOLECULE_CHECKSUM>
LTM2LjMyOzEuNTEzMzM=

> <BIOSOLVEIT.TORSION_QUALITY range: red, yellow, green, not rotatable>
green

> <BIOSOLVEIT.TPSA>
63.4

> <BIOSOLVEIT.OPTIBRIUM.2C9 pKi>
5.02215

> <BIOSOLVEIT.OPTIBRIUM.2D6 affinity category>
high

> <BIOSOLVEIT.OPTIBRIUM.BBB category>
+

> <BIOSOLVEIT.OPTIBRIUM.BBB log([brain]:[blood])>
-0.651574

> <BIOSOLVEIT.OPTIBRIUM.hERG pIC50>
4.51283

> <BIOSOLVEIT.OPTIBRIUM.HIA category>
+

> <BIOSOLVEIT.OPTIBRIUM.logD>
2.78967

> <BIOSOLVEIT.OPTIBRIUM.logP>
2.78967

> <BIOSOLVEIT.OPTIBRIUM.logS @ pH7.4>
1.91645

> <BIOSOLVEIT.OPTIBRIUM.logS>
1.91645

> <BIOSOLVEIT.OPTIBRIUM.P-gp category>
no

> <BIOSOLVEIT.OPTIBRIUM.PPB90 category>
high

$$$$
ASAP-0035404_DF006
ilSeeSAR  12112415133D 1   1.00000     0.00000     0
SeeSAR 13.1.1 ill13029
 38 40  0  0  0  0            999 V2000
    5.7529   10.4515   27.5815 Br  0  0  0  0  0  0  0  0  0  0  0  0
    7.1502   10.2621   26.2201 C   0  0  0  0  0  0  0  0  0  0  0  0
    7.5717    9.0191   25.7538 C   0  0  0  0  0  0  0  0  0  0  0  0
    8.5655    8.8960   24.7860 C   0  0  0  0  0  0  0  0  0  0  0  0
    9.1715    7.8213   24.1527 N   0  0  0  0  0  0  0  0  0  0  0  0
   10.0685    8.2893   23.3112 C   0  0  0  0  0  0  0  0  0  0  0  0
   10.0640    9.6246   23.3764 O   0  0  0  0  0  0  0  0  0  0  0  0
    9.1532   10.0239   24.2706 C   0  0  0  0  0  0  0  0  0  0  0  0
    8.7417   11.2739   24.7276 C   0  0  0  0  0  0  0  0  0  0  0  0
    7.7491   11.4021   25.6941 C   0  0  0  0  0  0  0  0  0  0  0  0
    9.3689   12.5471   24.1829 C   0  0  0  0  0  0  0  0  0  0  0  0
    9.1037   12.7523   22.7029 C   0  0  0  0  0  0  0  0  0  0  0  0
    8.3942   11.9894   22.0587 O   0  0  0  0  0  0  0  0  0  0  0  0
    9.7350   13.7973   22.1292 N   0  0  0  0  0  0  0  0  0  0  0  0
    9.5687   14.0749   20.6986 C   0  0  0  0  0  0  0  0  0  0  0  0
   10.9308   14.0850   20.0023 C   0  0  1  0  0  0  0  0  0  0  0  0
   10.8597   14.3143   18.5037 C   0  0  0  0  0  0  0  0  0  0  0  0
   10.3271   15.3219   18.0376 O   0  0  0  0  0  0  0  0  0  0  0  0
   11.4470   13.3970   17.7495 N   0  0  0  0  0  0  0  0  0  0  0  0
   11.7935   15.1492   20.6883 C   0  0  0  0  0  0  0  0  0  0  0  0
   11.9596   14.8462   22.1762 C   0  0  0  0  0  0  0  0  0  0  0  0
   10.6098   14.7368   22.8467 C   0  0  0  0  0  0  0  0  0  0  0  0
    7.1194    8.1341   26.1502 H   0  0  0  0  0  0  0  0  0  0  0  0
   10.6978    7.6984   22.6790 H   0  0  0  0  0  0  0  0  0  0  0  0
    7.4481   12.3721   26.0308 H   0  0  0  0  0  0  0  0  0  0  0  0
   10.4268   12.4988   24.3363 H   0  0  0  0  0  0  0  0  0  0  0  0
    8.9684   13.3813   24.7200 H   0  0  0  0  0  0  0  0  0  0  0  0
    9.1015   15.0296   20.5754 H   0  0  0  0  0  0  0  0  0  0  0  0
    8.9530   13.3173   20.2605 H   0  0  0  0  0  0  0  0  0  0  0  0
   11.3908   13.1331   20.1673 H   0  0  0  0  0  0  0  0  0  0  0  0
   11.4524   13.4963   16.7545 H   0  0  0  0  0  0  0  0  0  0  0  0
   11.8852   12.6054   18.1754 H   0  0  0  0  0  0  0  0  0  0  0  0
   11.3248   16.1045   20.5763 H   0  0  0  0  0  0  0  0  0  0  0  0
   12.7580   15.1688   20.2256 H   0  0  0  0  0  0  0  0  0  0  0  0
   12.5186   15.6342   22.6360 H   0  0  0  0  0  0  0  0  0  0  0  0
   12.4860   13.9216   22.2908 H   0  0  0  0  0  0  0  0  0  0  0  0
   10.7454   14.3907   23.8501 H   0  0  0  0  0  0  0  0  0  0  0  0
   10.1480   15.7018   22.8617 H   0  0  0  0  0  0  0  0  0  0  0  0
  1  2  1  0  0  0  0
  2  3  1  0  0  0  0
  2 10  2  0  0  0  0
  3  4  2  0  0  0  0
  4  5  1  0  0  0  0
  4  8  1  0  0  0  0
  5  6  2  0  0  0  0
  6  7  1  0  0  0  0
  7  8  1  0  0  0  0
  8  9  2  0  0  0  0
  9 10  1  0  0  0  0
  9 11  1  0  0  0  0
 11 12  1  0  0  0  0
 12 13  2  0  0  0  0
 12 14  1  0  0  0  0
 14 15  1  0  0  0  0
 14 22  1  0  0  0  0
 15 16  1  0  0  0  0
 16 17  1  0  0  0  0
 16 20  1  0  0  0  0
 17 18  2  0  0  0  0
 17 19  1  0  0  0  0
 20 21  1  0  0  0  0
 21 22  1  0  0  0  0
  3 23  1  0  0  0  0
  6 24  1  0  0  0  0
 10 25  1  0  0  0  0
 11 26  1  0  0  0  0
 11 27  1  0  0  0  0
 15 28  1  0  0  0  0
 15 29  1  0  0  0  0
 16 30  1  0  0  0  0
 19 31  1  0  0  0  0
 19 32  1  0  0  0  0
 20 33  1  0  0  0  0
 20 34  1  0  0  0  0
 21 35  1  0  0  0  0
 21 36  1  0  0  0  0
 22 37  1  0  0  0  0
 22 38  1  0  0  0  0
M  END
> <BIOSOLVEIT.HYDE_ATOM_SCORES [kJ/mol]>
# Atom-ID; Total; Rec-Desolv; Rec-IA; Lig-Desolv; Lig-IA
1;-1.1616;-0.7105;0.0000;-0.4511;0.0000
2;-0.4045;0.0000;0.0000;-0.4045;0.0000
3;-3.0485;-1.3988;0.0000;-1.6497;0.0000
4;-1.6070;-0.9466;0.0000;-0.6604;0.0000
5;-5.0109;5.7673;-9.3368;6.7374;-8.1787
6;-3.4827;-1.4434;0.0000;-2.0393;0.0000
7;-0.8108;-1.0710;0.0000;0.2602;0.0000
8;-1.5508;-0.8657;0.0000;-0.6851;0.0000
9;-0.3197;-0.1183;0.0000;-0.2014;0.0000
10;-1.2431;-0.5625;0.0000;-0.6806;0.0000
11;-0.3789;0.0000;0.0000;-0.3789;0.0000
12;0.0000;0.0000;0.0000;0.0000;0.0000
13;0.2337;6.4016;-7.4129;10.3917;-9.1467
14;0.0000;0.0000;0.0000;0.0000;0.0000
15;-1.2741;0.0000;0.0000;-1.2741;0.0000
16;-0.4619;0.0000;0.0000;-0.4619;0.0000
17;-0.4565;0.0000;0.0000;-0.4565;0.0000
18;-6.6409;4.1340;-9.1621;10.3727;-11.9855
19;-4.2382;17.0633;-19.3406;7.9081;-9.8689
20;-2.4379;-0.9697;0.0000;-1.4682;0.0000
21;-2.9873;-1.6798;0.0000;-1.3075;0.0000
22;-1.1292;-0.7014;0.0000;-0.4278;0.0000

> <BIOSOLVEIT.HYDE_ESTIMATED_AFFINITY_LOWER_BOUNDARY [nM]>
17.158464

> <BIOSOLVEIT.HYDE_ESTIMATED_AFFINITY_UPPER_BOUNDARY [nM]>
1704.794879

> <BIOSOLVEIT.HYDE_LIGAND_EFFICIENCY range: ++, +, 0, -, -->
+

> <BIOSOLVEIT.HYDE_LIGAND_LIPOPHILIC_EFFICIENCY range: ++, +, 0, -, -->
0

> <BIOSOLVEIT.INTER_CLASH range: red, yellow, green>
green

> <BIOSOLVEIT.INTRA_CLASH range: red, yellow, green>
green

> <BIOSOLVEIT.LOGP>
1.8567

> <BIOSOLVEIT.MOLECULAR_WEIGHT>
366.213

> <BIOSOLVEIT.MOLECULE_CHECKSUM>
LTM4LjYyNTc7MS43NTU3MQ==

> <BIOSOLVEIT.TORSION_QUALITY range: red, yellow, green, not rotatable>
green

> <BIOSOLVEIT.TPSA>
89.43

> <BIOSOLVEIT.OPTIBRIUM.2C9 pKi>
4.66217

> <BIOSOLVEIT.OPTIBRIUM.2D6 affinity category>
low

> <BIOSOLVEIT.OPTIBRIUM.BBB category>
-

> <BIOSOLVEIT.OPTIBRIUM.BBB log([brain]:[blood])>
-0.906411

> <BIOSOLVEIT.OPTIBRIUM.hERG pIC50>
4.40519

> <BIOSOLVEIT.OPTIBRIUM.HIA category>
+

> <BIOSOLVEIT.OPTIBRIUM.logD>
1.64543

> <BIOSOLVEIT.OPTIBRIUM.logP>
1.64543

> <BIOSOLVEIT.OPTIBRIUM.logS @ pH7.4>
2.86011

> <BIOSOLVEIT.OPTIBRIUM.logS>
2.86011

> <BIOSOLVEIT.OPTIBRIUM.P-gp category>
no

> <BIOSOLVEIT.OPTIBRIUM.PPB90 category>
low

$$$$
ASAP-0035404_DF007
ilSeeSAR  12112415133D 1   1.00000     0.00000     0
SeeSAR 13.1.1 ill13029
 42 43  0  0  0  0            999 V2000
    5.4014   11.1653   27.4701 Br  0  0  0  0  0  0  0  0  0  0  0  0
    6.8609   10.6548   26.2656 C   0  0  0  0  0  0  0  0  0  0  0  0
    7.0856    9.3086   25.9954 C   0  0  0  0  0  0  0  0  0  0  0  0
    6.2569    8.3008   26.5928 N   0  0  0  0  0  0  0  0  0  0  0  0
    8.1223    8.9500   25.1400 C   0  0  0  0  0  0  0  0  0  0  0  0
    8.9210    9.9330   24.5651 C   0  0  0  0  0  0  0  0  0  0  0  0
   10.2439    9.4755   23.4737 S   0  0  0  0  0  0  0  0  0  0  0  0
   10.0715    7.7010   23.3105 C   0  0  0  0  0  0  0  0  0  0  0  0
    8.6893   11.2777   24.8404 C   0  0  0  0  0  0  0  0  0  0  0  0
    7.6547   11.6445   25.6949 C   0  0  0  0  0  0  0  0  0  0  0  0
    9.5469   12.3720   24.2256 C   0  0  0  0  0  0  0  0  0  0  0  0
    9.2232   12.6287   22.7654 C   0  0  0  0  0  0  0  0  0  0  0  0
    8.4774   11.8961   22.1273 O   0  0  0  0  0  0  0  0  0  0  0  0
    9.8443   13.6842   22.1997 N   0  0  0  0  0  0  0  0  0  0  0  0
    9.6226   14.0103   20.7869 C   0  0  0  0  0  0  0  0  0  0  0  0
   10.9545   14.0267   20.0348 C   0  0  1  0  0  0  0  0  0  0  0  0
   10.8243   14.3057   18.5487 C   0  0  0  0  0  0  0  0  0  0  0  0
   10.2597   15.3198   18.1374 O   0  0  0  0  0  0  0  0  0  0  0  0
   11.3972   13.4244   17.7422 N   0  0  0  0  0  0  0  0  0  0  0  0
   11.8593   15.0573   20.7179 C   0  0  0  0  0  0  0  0  0  0  0  0
   12.0829   14.7037   22.1870 C   0  0  0  0  0  0  0  0  0  0  0  0
   10.7608   14.5890   22.9098 C   0  0  0  0  0  0  0  0  0  0  0  0
    6.4232    7.3348   26.3949 H   0  0  0  0  0  0  0  0  0  0  0  0
    5.5130    8.5646   27.2068 H   0  0  0  0  0  0  0  0  0  0  0  0
    8.3055    7.9181   24.9244 H   0  0  0  0  0  0  0  0  0  0  0  0
   10.8357    7.3267   22.6618 H   0  0  0  0  0  0  0  0  0  0  0  0
   10.1654    7.2436   24.2733 H   0  0  0  0  0  0  0  0  0  0  0  0
    9.1107    7.4724   22.8991 H   0  0  0  0  0  0  0  0  0  0  0  0
    7.4715   12.6764   25.9108 H   0  0  0  0  0  0  0  0  0  0  0  0
   10.5743   12.0831   24.3015 H   0  0  0  0  0  0  0  0  0  0  0  0
    9.3894   13.2772   24.7740 H   0  0  0  0  0  0  0  0  0  0  0  0
    9.1635   14.9742   20.7142 H   0  0  0  0  0  0  0  0  0  0  0  0
    8.9791   13.2750   20.3509 H   0  0  0  0  0  0  0  0  0  0  0  0
   11.4081   13.0644   20.1496 H   0  0  0  0  0  0  0  0  0  0  0  0
   11.3640   13.5575   16.7517 H   0  0  0  0  0  0  0  0  0  0  0  0
   11.8627   12.6259   18.1241 H   0  0  0  0  0  0  0  0  0  0  0  0
   11.3995   16.0215   20.6564 H   0  0  0  0  0  0  0  0  0  0  0  0
   12.8041   15.0802   20.2160 H   0  0  0  0  0  0  0  0  0  0  0  0
   12.6713   15.4693   22.6480 H   0  0  0  0  0  0  0  0  0  0  0  0
   12.6010   13.7695   22.2496 H   0  0  0  0  0  0  0  0  0  0  0  0
   10.9333   14.2087   23.8949 H   0  0  0  0  0  0  0  0  0  0  0  0
   10.3133   15.5587   22.9751 H   0  0  0  0  0  0  0  0  0  0  0  0
  1  2  1  0  0  0  0
  2  3  1  0  0  0  0
  2 10  2  0  0  0  0
  3  4  1  0  0  0  0
  3  5  2  0  0  0  0
  5  6  1  0  0  0  0
  6  7  1  0  0  0  0
  6  9  2  0  0  0  0
  7  8  1  0  0  0  0
  9 10  1  0  0  0  0
  9 11  1  0  0  0  0
 11 12  1  0  0  0  0
 12 13  2  0  0  0  0
 12 14  1  0  0  0  0
 14 15  1  0  0  0  0
 14 22  1  0  0  0  0
 15 16  1  0  0  0  0
 16 17  1  0  0  0  0
 16 20  1  0  0  0  0
 17 18  2  0  0  0  0
 17 19  1  0  0  0  0
 20 21  1  0  0  0  0
 21 22  1  0  0  0  0
  4 23  1  0  0  0  0
  4 24  1  0  0  0  0
  5 25  1  0  0  0  0
  8 26  1  0  0  0  0
  8 27  1  0  0  0  0
  8 28  1  0  0  0  0
 10 29  1  0  0  0  0
 11 30  1  0  0  0  0
 11 31  1  0  0  0  0
 15 32  1  0  0  0  0
 15 33  1  0  0  0  0
 16 34  1  0  0  0  0
 19 35  1  0  0  0  0
 19 36  1  0  0  0  0
 20 37  1  0  0  0  0
 20 38  1  0  0  0  0
 21 39  1  0  0  0  0
 21 40  1  0  0  0  0
 22 41  1  0  0  0  0
 22 42  1  0  0  0  0
M  END
> <BIOSOLVEIT.HYDE_ATOM_SCORES [kJ/mol]>
# Atom-ID; Total; Rec-Desolv; Rec-IA; Lig-Desolv; Lig-IA
1;-0.3590;0.0000;0.0000;-0.3590;0.0000
2;0.3974;0.7949;0.0000;-0.3975;0.0000
3;-1.1512;-0.4646;0.0000;-0.6865;0.0000
4;-0.6041;0.3413;-1.1430;1.1240;-0.9263
5;-4.7745;-2.5862;0.0000;-2.1883;0.0000
6;-0.4558;-0.0287;0.0000;-0.4271;0.0000
7;-3.1681;-2.1543;0.0000;-1.0138;0.0000
8;-5.0710;-0.9890;0.0000;-4.0820;0.0000
9;-0.8715;-0.6040;0.0000;-0.2675;0.0000
10;-0.6027;0.0000;0.0000;-0.6027;0.0000
11;-0.6465;-0.1808;0.0000;-0.4656;0.0000
12;0.0000;0.0000;0.0000;0.0000;0.0000
13;1.2705;5.1178;-6.3711;10.3852;-7.8613
14;0.0000;0.0000;0.0000;0.0000;0.0000
15;-1.2170;0.0000;0.0000;-1.2170;0.0000
16;-0.4624;0.0000;0.0000;-0.4624;0.0000
17;-0.4917;0.0000;0.0000;-0.4917;0.0000
18;-6.8613;4.1340;-9.2393;10.3964;-12.1524
19;-3.5971;17.1369;-18.8882;7.9586;-9.8044
20;-2.4392;-0.9081;0.0000;-1.5311;0.0000
21;-3.0443;-1.8189;0.0000;-1.2254;0.0000
22;-1.1477;-0.7014;0.0000;-0.4463;0.0000

> <BIOSOLVEIT.HYDE_ESTIMATED_AFFINITY_LOWER_BOUNDARY [nM]>
60.291439

> <BIOSOLVEIT.HYDE_ESTIMATED_AFFINITY_UPPER_BOUNDARY [nM]>
5990.310971

> <BIOSOLVEIT.HYDE_LIGAND_EFFICIENCY range: ++, +, 0, -, -->
0

> <BIOSOLVEIT.HYDE_LIGAND_LIPOPHILIC_EFFICIENCY range: ++, +, 0, -, -->
0

> <BIOSOLVEIT.INTER_CLASH range: red, yellow, green>
green

> <BIOSOLVEIT.INTRA_CLASH range: red, yellow, green>
green

> <BIOSOLVEIT.LOGP>
2.0196

> <BIOSOLVEIT.MOLECULAR_WEIGHT>
386.311

> <BIOSOLVEIT.MOLECULE_CHECKSUM>
LTM1LjUxMDQ7MS42MTQxMQ==

> <BIOSOLVEIT.TORSION_QUALITY range: red, yellow, green, not rotatable>
green

> <BIOSOLVEIT.TPSA>
89.42

> <BIOSOLVEIT.OPTIBRIUM.2C9 pKi>
4.60463

> <BIOSOLVEIT.OPTIBRIUM.2D6 affinity category>
low

> <BIOSOLVEIT.OPTIBRIUM.BBB category>
-

> <BIOSOLVEIT.OPTIBRIUM.BBB log([brain]:[blood])>
-0.597618

> <BIOSOLVEIT.OPTIBRIUM.hERG pIC50>
3.94281

> <BIOSOLVEIT.OPTIBRIUM.HIA category>
+

> <BIOSOLVEIT.OPTIBRIUM.logD>
0.605882

> <BIOSOLVEIT.OPTIBRIUM.logP>
1.52194

> <BIOSOLVEIT.OPTIBRIUM.logS @ pH7.4>
2.99537

> <BIOSOLVEIT.OPTIBRIUM.logS>
2.73102

> <BIOSOLVEIT.OPTIBRIUM.P-gp category>
yes

> <BIOSOLVEIT.OPTIBRIUM.PPB90 category>
low

$$$$
ASAP-0035404_DF008
ilSeeSAR  12112415133D 1   1.00000     0.00000     0
SeeSAR 13.1.1 ill13029
 47 49  0  0  0  0            999 V2000
   10.2333    9.4614   23.3584 S   0  0  0  0  0  0  0  0  0  0  0  0
    9.0305    9.9662   24.5620 C   0  0  0  0  0  0  0  0  0  0  0  0
    8.8999   11.3111   24.8902 C   0  0  0  0  0  0  0  0  0  0  0  0
    7.9677   11.7153   25.8343 C   0  0  0  0  0  0  0  0  0  0  0  0
    7.1681   10.7637   26.4524 C   0  0  0  0  0  0  0  0  0  0  0  0
    7.2694    9.4155   26.1429 C   0  0  0  0  0  0  0  0  0  0  0  0
    6.4211    8.4689   26.8136 N   0  0  0  0  0  0  0  0  0  0  0  0
    5.1714    8.8982   27.4606 C   0  0  0  0  0  0  0  0  0  0  0  0
    5.2787   10.3318   27.9636 C   0  0  0  0  0  0  0  0  0  0  0  0
    6.2001   11.1835   27.5031 C   0  0  0  0  0  0  0  0  0  0  0  0
    8.2115    9.0344   25.1908 C   0  0  0  0  0  0  0  0  0  0  0  0
    9.7787   12.3565   24.2242 C   0  0  0  0  0  0  0  0  0  0  0  0
    9.4114   12.6019   22.7725 C   0  0  0  0  0  0  0  0  0  0  0  0
    8.6697   11.8486   22.1543 O   0  0  0  0  0  0  0  0  0  0  0  0
    9.9895   13.6726   22.1901 N   0  0  0  0  0  0  0  0  0  0  0  0
    9.7235   13.9903   20.7830 C   0  0  0  0  0  0  0  0  0  0  0  0
   11.0350   14.0409   19.9974 C   0  0  1  0  0  0  0  0  0  0  0  0
   10.8599   14.3137   18.5147 C   0  0  0  0  0  0  0  0  0  0  0  0
   10.2837   15.3266   18.1165 O   0  0  0  0  0  0  0  0  0  0  0  0
   11.4073   13.4285   17.6949 N   0  0  0  0  0  0  0  0  0  0  0  0
   11.9290   15.0966   20.6561 C   0  0  0  0  0  0  0  0  0  0  0  0
   12.1991   14.7516   22.1195 C   0  0  0  0  0  0  0  0  0  0  0  0
   10.8992   14.6028   22.8757 C   0  0  0  0  0  0  0  0  0  0  0  0
   10.0584    7.6807   23.2976 C   0  0  0  0  0  0  0  0  0  0  0  0
    7.8658   12.7508   26.0840 H   0  0  0  0  0  0  0  0  0  0  0  0
    6.6841    7.5044   26.8408 H   0  0  0  0  0  0  0  0  0  0  0  0
    4.9665    8.2519   28.2883 H   0  0  0  0  0  0  0  0  0  0  0  0
    4.3718    8.8353   26.7524 H   0  0  0  0  0  0  0  0  0  0  0  0
    4.5923   10.6690   28.7120 H   0  0  0  0  0  0  0  0  0  0  0  0
    6.2426   12.1786   27.8940 H   0  0  0  0  0  0  0  0  0  0  0  0
    8.3077    7.9995   24.9368 H   0  0  0  0  0  0  0  0  0  0  0  0
   10.7952   12.0252   24.2675 H   0  0  0  0  0  0  0  0  0  0  0  0
    9.6803   13.2768   24.7612 H   0  0  0  0  0  0  0  0  0  0  0  0
    9.2371   14.9413   20.7209 H   0  0  0  0  0  0  0  0  0  0  0  0
    9.0891   13.2372   20.3642 H   0  0  0  0  0  0  0  0  0  0  0  0
   11.5169   13.0912   20.1017 H   0  0  0  0  0  0  0  0  0  0  0  0
   11.3441   13.5575   16.7053 H   0  0  0  0  0  0  0  0  0  0  0  0
   11.8836   12.6313   18.0657 H   0  0  0  0  0  0  0  0  0  0  0  0
   11.4420   16.0480   20.6053 H   0  0  0  0  0  0  0  0  0  0  0  0
   12.8598   15.1437   20.1305 H   0  0  0  0  0  0  0  0  0  0  0  0
   12.7782   15.5334   22.5648 H   0  0  0  0  0  0  0  0  0  0  0  0
   12.7433   13.8317   22.1700 H   0  0  0  0  0  0  0  0  0  0  0  0
   11.1067   14.2289   23.8566 H   0  0  0  0  0  0  0  0  0  0  0  0
   10.4277   15.5603   22.9513 H   0  0  0  0  0  0  0  0  0  0  0  0
   10.7521    7.2781   22.5893 H   0  0  0  0  0  0  0  0  0  0  0  0
   10.2576    7.2695   24.2652 H   0  0  0  0  0  0  0  0  0  0  0  0
    9.0611    7.4301   23.0020 H   0  0  0  0  0  0  0  0  0  0  0  0
  1  2  1  0  0  0  0
  1 24  1  0  0  0  0
  2  3  2  0  0  0  0
  2 11  1  0  0  0  0
  3  4  1  0  0  0  0
  3 12  1  0  0  0  0
  4  5  2  0  0  0  0
  5  6  1  0  0  0  0
  5 10  1  0  0  0  0
  6  7  1  0  0  0  0
  6 11  2  0  0  0  0
  7  8  1  0  0  0  0
  8  9  1  0  0  0  0
  9 10  2  0  0  0  0
 12 13  1  0  0  0  0
 13 14  2  0  0  0  0
 13 15  1  0  0  0  0
 15 16  1  0  0  0  0
 15 23  1  0  0  0  0
 16 17  1  0  0  0  0
 17 18  1  0  0  0  0
 17 21  1  0  0  0  0
 18 19  2  0  0  0  0
 18 20  1  0  0  0  0
 21 22  1  0  0  0  0
 22 23  1  0  0  0  0
  4 25  1  0  0  0  0
  7 26  1  0  0  0  0
  8 27  1  0  0  0  0
  8 28  1  0  0  0  0
  9 29  1  0  0  0  0
 10 30  1  0  0  0  0
 11 31  1  0  0  0  0
 12 32  1  0  0  0  0
 12 33  1  0  0  0  0
 16 34  1  0  0  0  0
 16 35  1  0  0  0  0
 17 36  1  0  0  0  0
 20 37  1  0  0  0  0
 20 38  1  0  0  0  0
 21 39  1  0  0  0  0
 21 40  1  0  0  0  0
 22 41  1  0  0  0  0
 22 42  1  0  0  0  0
 23 43  1  0  0  0  0
 23 44  1  0  0  0  0
 24 45  1  0  0  0  0
 24 46  1  0  0  0  0
 24 47  1  0  0  0  0
M  END
> <BIOSOLVEIT.HYDE_ATOM_SCORES [kJ/mol]>
# Atom-ID; Total; Rec-Desolv; Rec-IA; Lig-Desolv; Lig-IA
1;-2.3116;-1.2114;0.0000;-1.1002;0.0000
2;-1.4494;-1.0377;0.0000;-0.4117;0.0000
3;-0.4392;-0.2223;0.0000;-0.2168;0.0000
4;-1.3260;-0.6677;0.0000;-0.6582;0.0000
5;-0.3736;0.0000;0.0000;-0.3736;0.0000
6;-1.3813;-0.8181;0.0000;-0.5632;0.0000
7;-2.8805;8.3445;-10.0424;6.9562;-8.1388
8;-0.8740;-0.0824;0.0000;-0.7916;0.0000
9;-0.0242;0.0000;0.0000;-0.0242;0.0000
10;-0.0715;0.0000;0.0000;-0.0715;0.0000
11;-4.4598;-2.3842;0.0000;-2.0756;0.0000
12;-0.4272;0.0000;0.0000;-0.4272;0.0000
13;0.0000;0.0000;0.0000;0.0000;0.0000
14;4.8905;5.5870;-4.9579;10.3789;-6.1175
15;0.0000;0.0000;0.0000;0.0000;0.0000
16;-1.1826;0.0000;0.0000;-1.1826;0.0000
17;-0.6203;0.0000;0.0000;-0.6203;0.0000
18;-0.4713;0.0000;0.0000;-0.4713;0.0000
19;-6.6499;4.2536;-9.2104;10.3968;-12.0899
20;-3.2267;17.1330;-18.5636;7.9557;-9.7518
21;-2.4557;-0.9152;0.0000;-1.5405;0.0000
22;-3.2422;-1.8407;0.0000;-1.4015;0.0000
23;-1.2187;-0.7309;0.0000;-0.4878;0.0000
24;-5.0998;-0.9890;0.0000;-4.1108;0.0000

> <BIOSOLVEIT.HYDE_ESTIMATED_AFFINITY_LOWER_BOUNDARY [nM]>
60.323969

> <BIOSOLVEIT.HYDE_ESTIMATED_AFFINITY_UPPER_BOUNDARY [nM]>
5993.542972

> <BIOSOLVEIT.HYDE_LIGAND_EFFICIENCY range: ++, +, 0, -, -->
0

> <BIOSOLVEIT.HYDE_LIGAND_LIPOPHILIC_EFFICIENCY range: ++, +, 0, -, -->
0

> <BIOSOLVEIT.INTER_CLASH range: red, yellow, green>
green

> <BIOSOLVEIT.INTRA_CLASH range: red, yellow, green>
green

> <BIOSOLVEIT.LOGP>
2.1136

> <BIOSOLVEIT.MOLECULAR_WEIGHT>
345.464

> <BIOSOLVEIT.MOLECULE_CHECKSUM>
LTM1LjUwOTsxLjQ3OTU0

> <BIOSOLVEIT.TORSION_QUALITY range: red, yellow, green, not rotatable>
green

> <BIOSOLVEIT.TPSA>
75.43

> <BIOSOLVEIT.OPTIBRIUM.2C9 pKi>
4.69957

> <BIOSOLVEIT.OPTIBRIUM.2D6 affinity category>
low

> <BIOSOLVEIT.OPTIBRIUM.BBB category>
-

> <BIOSOLVEIT.OPTIBRIUM.BBB log([brain]:[blood])>
-0.451696

> <BIOSOLVEIT.OPTIBRIUM.hERG pIC50>
4.53412

> <BIOSOLVEIT.OPTIBRIUM.HIA category>
+

> <BIOSOLVEIT.OPTIBRIUM.logD>
0.687257

> <BIOSOLVEIT.OPTIBRIUM.logP>
1.16972

> <BIOSOLVEIT.OPTIBRIUM.logS @ pH7.4>
3.04081

> <BIOSOLVEIT.OPTIBRIUM.logS>
4.12734

> <BIOSOLVEIT.OPTIBRIUM.P-gp category>
yes

> <BIOSOLVEIT.OPTIBRIUM.PPB90 category>
low

$$$$
