A71EV2A-x3408_A_201_1_A71EV2A-x0526+A+147+1__LIG
     RDKit          3D

 14 14  0  0  0  0  0  0  0  0999 V2000
    9.6880   16.2810   19.4910 O   0  0  0  0  0  0  0  0  0  0  0  0
   10.0000   15.1040   19.6750 C   0  0  0  0  0  0  0  0  0  0  0  0
   10.3420   14.2840   18.6910 N   0  0  0  0  0  0  0  0  0  0  0  0
    9.9220   14.4800   21.0560 C   0  0  1  0  0  0  0  0  0  0  0  0
   10.8380   15.1650   22.0610 C   0  0  0  0  0  0  0  0  0  0  0  0
   10.7500   14.4940   23.4300 C   0  0  0  0  0  0  0  0  0  0  0  0
    9.3120   14.3160   23.8970 C   0  0  0  0  0  0  0  0  0  0  0  0
    8.5170   14.6670   21.6090 C   0  0  0  0  0  0  0  0  0  0  0  0
    8.4170   13.8450   22.8230 N   0  0  0  0  0  0  0  0  0  0  0  0
    6.8850   13.4240   23.2540 S   0  0  0  0  0  0  0  0  0  0  0  0
    6.2880   12.8230   22.1430 O   0  0  0  0  0  0  0  0  0  0  0  0
    6.9710   12.8280   24.4490 O   0  0  0  0  0  0  0  0  0  0  0  0
    6.2880   14.8730   23.1150 C   0  0  0  0  0  0  0  0  0  0  0  0
    5.8680   15.5570   24.0210 C   0  0  0  0  0  0  0  0  0  0  0  0
 14 13  2  0
 13 10  1  0
 11 10  2  0
 12 10  2  0
 10  9  1  0
  9  7  1  0
  7  6  1  0
  6  5  1  0
  5  4  1  0
  4  2  1  6
  3  2  1  0
  2  1  2  0
  8  4  1  0
  9  8  1  0
M  END
$$$$
