279
     RDKit          3D

 18 19  0  0  0  0  0  0  0  0999 V2000
   12.0655   15.4855   19.3486 N   0  0  0  0  0  0  0  0  0  0  0  0
   10.7089   15.5887   19.8343 C   0  0  0  0  0  0  0  0  0  0  0  0
    9.6983   15.8871   19.2662 O   0  0  0  0  0  0  0  0  0  0  0  0
   10.6349   15.2384   21.3275 C   0  0  1  0  0  0  0  0  0  0  0  0
   11.1701   16.3884   22.1601 C   0  0  0  0  0  0  0  0  0  0  0  0
   10.6305   16.2257   23.5612 C   0  0  0  0  0  0  0  0  0  0  0  0
    9.1470   15.8652   23.4897 C   0  0  0  0  0  0  0  0  0  0  0  0
    8.9359   14.4129   23.1149 N   0  0  0  0  0  0  0  0  0  0  0  0
    7.7464   13.9145   23.7295 C   0  0  0  0  0  0  0  0  0  0  0  0
    6.6145   13.8882   23.3306 O   0  0  0  0  0  0  0  0  0  0  0  0
    8.1173   13.4292   25.1332 C   0  0  0  0  0  0  0  0  0  0  0  0
    7.3897   12.1838   25.5580 C   0  0  0  0  0  0  0  0  0  0  0  0
    7.8140   10.9335   25.0987 C   0  0  0  0  0  0  0  0  0  0  0  0
    7.1295    9.7845   25.4799 C   0  0  0  0  0  0  0  0  0  0  0  0
    6.0160    9.8741   26.3155 C   0  0  0  0  0  0  0  0  0  0  0  0
    5.5853   11.1152   26.7745 C   0  0  0  0  0  0  0  0  0  0  0  0
    6.2670   12.2679   26.3929 C   0  0  0  0  0  0  0  0  0  0  0  0
    9.1723   14.9613   21.7281 C   0  0  0  0  0  0  0  0  0  0  0  0
  1  2  1  0
  2  3  2  0
  4  2  1  6
  4  5  1  0
  5  6  1  0
  6  7  1  0
  7  8  1  0
  8  9  1  0
  9 10  2  0
  9 11  1  0
 11 12  1  0
 12 13  2  0
 13 14  1  0
 14 15  2  0
 15 16  1  0
 16 17  2  0
  8 18  1  0
 18  4  1  0
 17 12  1  0
M  END
>  <inchikey>  (1) 
GIUMMMNADIFJAW-LBPRGKRZSA-N

>  <alias>  (1) 
None

>  <name>  (1) 
GIUMMMNADIFJAW-LBPRGKRZSA-N

>  <smiles>  (1) 
NC(=O)[C@H]1CCCN(C(=O)Cc2ccccc2)C1

>  <path>  (1) 
/opt/xchem-fragalysis-2/maxwin/BulkDock/SCRATCH/239538/C228-P251/C228-P251.minimised.mol

>  <distance_score>  (1) 
0.70635

>  <energy_score>  (1) 
190.798022

>  <compound>  (1) 
GIUMMMNADIFJAW-UHFFFAOYSA-N

>  <compound_id>  (1) 
228

>  <target>  (1) 
A71EV2A

>  <tags>  (1) 
['Fragmenstein placed']

>  <inspirations>  (1) 
A4386a

>  <reference>  (1) 
A4386a

>  <SLURM_JOB_ID>  (1) 
239538

>  <SLURM_JOB_NAME>  (1) 
BulkDock.place:A71EV2A:2A_undecorated_hits_split1000_batch000

>  <csv_name>  (1) 
2A_undecorated_hits_split1000_batch000.csv

>  <scratch_subdir>  (1) 
/opt/xchem-fragalysis-2/maxwin/BulkDock/SCRATCH/239538/C228-P251

>  <fragmenstein_runtime>  (1) 
6.14346

>  <fragmenstein_outcome>  (1) 
too contorted

>  <fragmenstein_mode>  (1) 
expansion

>  <fragmenstein_error>  (1) 


$$$$
280
     RDKit          3D

 19 21  0  0  0  0  0  0  0  0999 V2000
    9.2032   14.3246   25.2485 O   0  0  0  0  0  0  0  0  0  0  0  0
    9.5632   13.4476   24.5676 C   0  0  0  0  0  0  0  0  0  0  0  0
   10.6415   13.4178   23.4563 N   0  0  0  0  0  0  0  0  0  0  0  0
   11.5598   14.4310   23.0219 C   0  0  0  0  0  0  0  0  0  0  0  0
   11.6641   14.6467   21.5263 C   0  0  0  0  0  0  0  0  0  0  0  0
   10.4879   15.3136   20.9349 C   0  0  0  0  0  0  0  0  0  0  0  0
   10.1779   15.4777   19.6082 C   0  0  0  0  0  0  0  0  0  0  0  0
    9.1102   16.3153   19.5291 O   0  0  0  0  0  0  0  0  0  0  0  0
    8.8228   16.6131   20.8258 C   0  0  0  0  0  0  0  0  0  0  0  0
    9.5971   16.0217   21.7012 N   0  0  0  0  0  0  0  0  0  0  0  0
    9.0369   12.0283   24.7657 C   0  0  2  0  0  0  0  0  0  0  0  0
    8.8537   11.0360   23.6230 C   0  0  0  0  0  0  0  0  0  0  0  0
    8.1489    9.8283   24.2580 C   0  0  0  0  0  0  0  0  0  0  0  0
    7.2946   10.5133   25.2775 C   0  0  0  0  0  0  0  0  0  0  0  0
    6.2304    9.9968   25.9873 C   0  0  0  0  0  0  0  0  0  0  0  0
    5.5594   10.8185   26.8912 C   0  0  0  0  0  0  0  0  0  0  0  0
    5.9313   12.1557   27.0418 C   0  0  0  0  0  0  0  0  0  0  0  0
    7.0207   12.6671   26.3380 C   0  0  0  0  0  0  0  0  0  0  0  0
    7.7256   11.8277   25.4891 C   0  0  0  0  0  0  0  0  0  0  0  0
  1  2  2  0
  2  3  1  0
  3  4  1  0
  4  5  1  0
  5  6  1  0
  6  7  2  0
  7  8  1  0
  8  9  1  0
  9 10  2  0
 11  2  1  6
 11 12  1  0
 12 13  1  0
 13 14  1  0
 14 15  2  0
 15 16  1  0
 16 17  2  0
 17 18  1  0
 18 19  2  0
 10  6  1  0
 19 11  1  0
 19 14  1  0
M  END
>  <inchikey>  (2) 
ZFSYVJFUGWTONQ-CQSZACIVSA-N

>  <alias>  (2) 
None

>  <name>  (2) 
ZFSYVJFUGWTONQ-CQSZACIVSA-N

>  <smiles>  (2) 
O=C(NCCc1cocn1)[C@@H]1CCc2ccccc21

>  <path>  (2) 
/opt/xchem-fragalysis-2/maxwin/BulkDock/SCRATCH/239538/C229-P178/C229-P178.minimised.mol

>  <distance_score>  (2) 
0.533993

>  <energy_score>  (2) 
7.300548

>  <compound>  (2) 
ZFSYVJFUGWTONQ-UHFFFAOYSA-N

>  <compound_id>  (2) 
229

>  <target>  (2) 
A71EV2A

>  <tags>  (2) 
['Fragmenstein placed']

>  <inspirations>  (2) 
A3392a

>  <reference>  (2) 
A3392a

>  <SLURM_JOB_ID>  (2) 
239538

>  <SLURM_JOB_NAME>  (2) 
BulkDock.place:A71EV2A:2A_undecorated_hits_split1000_batch000

>  <csv_name>  (2) 
2A_undecorated_hits_split1000_batch000.csv

>  <scratch_subdir>  (2) 
/opt/xchem-fragalysis-2/maxwin/BulkDock/SCRATCH/239538/C229-P178

>  <fragmenstein_runtime>  (2) 
3.693607

>  <fragmenstein_outcome>  (2) 
too contorted

>  <fragmenstein_mode>  (2) 
expansion

>  <fragmenstein_error>  (2) 


$$$$
281
     RDKit          3D

 18 19  0  0  0  0  0  0  0  0999 V2000
   10.0423   16.5951   19.1781 N   0  0  0  0  0  0  0  0  0  0  0  0
   10.8302   15.4806   19.6624 C   0  0  0  0  0  0  0  0  0  0  0  0
   11.5540   14.7243   19.0775 O   0  0  0  0  0  0  0  0  0  0  0  0
   10.6667   15.2205   21.1754 C   0  0  1  0  0  0  0  0  0  0  0  0
   11.1201   16.3610   22.0659 C   0  0  0  0  0  0  0  0  0  0  0  0
   10.5477   16.0907   23.4368 C   0  0  0  0  0  0  0  0  0  0  0  0
    9.0787   15.6959   23.2765 C   0  0  0  0  0  0  0  0  0  0  0  0
    8.9465   14.2425   22.8871 N   0  0  0  0  0  0  0  0  0  0  0  0
    7.7499   13.6923   23.4398 C   0  0  0  0  0  0  0  0  0  0  0  0
    6.6412   13.6219   22.9844 O   0  0  0  0  0  0  0  0  0  0  0  0
    8.0714   13.2519   24.8672 C   0  0  0  0  0  0  0  0  0  0  0  0
    7.3376   12.0186   25.2882 C   0  0  0  0  0  0  0  0  0  0  0  0
    7.6943   10.7862   24.7581 C   0  0  0  0  0  0  0  0  0  0  0  0
    7.0053    9.6637   25.1854 C   0  0  0  0  0  0  0  0  0  0  0  0
    5.9637    9.8026   26.0938 C   0  0  0  0  0  0  0  0  0  0  0  0
    5.6822   11.0642   26.5808 C   0  0  0  0  0  0  0  0  0  0  0  0
    6.3707   12.1666   26.2297 N   0  0  0  0  0  0  0  0  0  0  0  0
    9.2280   14.8072   21.5174 C   0  0  0  0  0  0  0  0  0  0  0  0
  1  2  1  0
  2  3  2  0
  4  2  1  6
  4  5  1  0
  5  6  1  0
  6  7  1  0
  7  8  1  0
  8  9  1  0
  9 10  2  0
  9 11  1  0
 11 12  1  0
 12 13  2  0
 13 14  1  0
 14 15  2  0
 15 16  1  0
 16 17  2  0
  8 18  1  0
 18  4  1  0
 17 12  1  0
M  END
>  <inchikey>  (3) 
WMWYUEBZLNFETL-JTQLQIEISA-N

>  <alias>  (3) 
None

>  <name>  (3) 
WMWYUEBZLNFETL-JTQLQIEISA-N

>  <smiles>  (3) 
NC(=O)[C@H]1CCCN(C(=O)Cc2ccccn2)C1

>  <path>  (3) 
/opt/xchem-fragalysis-2/maxwin/BulkDock/SCRATCH/239538/C230-P244/C230-P244.minimised.mol

>  <distance_score>  (3) 
0.626029

>  <energy_score>  (3) 
171.640807

>  <compound>  (3) 
WMWYUEBZLNFETL-UHFFFAOYSA-N

>  <compound_id>  (3) 
230

>  <target>  (3) 
A71EV2A

>  <tags>  (3) 
['Fragmenstein placed']

>  <inspirations>  (3) 
A4283a

>  <reference>  (3) 
A4283a

>  <SLURM_JOB_ID>  (3) 
239538

>  <SLURM_JOB_NAME>  (3) 
BulkDock.place:A71EV2A:2A_undecorated_hits_split1000_batch000

>  <csv_name>  (3) 
2A_undecorated_hits_split1000_batch000.csv

>  <scratch_subdir>  (3) 
/opt/xchem-fragalysis-2/maxwin/BulkDock/SCRATCH/239538/C230-P244

>  <fragmenstein_runtime>  (3) 
7.06677

>  <fragmenstein_outcome>  (3) 
too contorted

>  <fragmenstein_mode>  (3) 
expansion

>  <fragmenstein_error>  (3) 


$$$$
283
     RDKit          3D

 21 23  0  0  0  0  0  0  0  0999 V2000
   10.6134   16.4736   19.5207 N   0  0  0  0  0  0  0  0  0  0  0  0
   10.5506   16.8000   20.9355 C   0  0  0  0  0  0  0  0  0  0  0  0
   11.1802   17.5896   21.5839 O   0  0  0  0  0  0  0  0  0  0  0  0
    9.5710   15.8805   21.6647 C   0  0  1  0  0  0  0  0  0  0  0  0
   10.3358   14.6035   21.9731 C   0  0  0  0  0  0  0  0  0  0  0  0
   10.8136   14.6478   23.3975 C   0  0  0  0  0  0  0  0  0  0  0  0
    9.8149   15.3387   24.3298 C   0  0  0  0  0  0  0  0  0  0  0  0
    8.3648   15.6144   23.9430 N   0  0  0  0  0  0  0  0  0  0  0  0
    7.6610   14.3795   23.7325 C   0  0  0  0  0  0  0  0  0  0  0  0
    7.5040   13.7282   22.7294 O   0  0  0  0  0  0  0  0  0  0  0  0
    7.1515   13.8498   25.0872 C   0  0  1  0  0  0  0  0  0  0  0  0
    5.6885   14.2315   25.2658 C   0  0  0  0  0  0  0  0  0  0  0  0
    5.1832   13.5743   26.5387 C   0  0  0  0  0  0  0  0  0  0  0  0
    5.2407   12.1458   26.5044 O   0  0  0  0  0  0  0  0  0  0  0  0
    6.3363   11.6041   25.8897 C   0  0  0  0  0  0  0  0  0  0  0  0
    6.4189   10.2138   25.9143 C   0  0  0  0  0  0  0  0  0  0  0  0
    7.4731    9.5643   25.2747 C   0  0  0  0  0  0  0  0  0  0  0  0
    8.4853   10.2909   24.6676 C   0  0  0  0  0  0  0  0  0  0  0  0
    8.4117   11.6769   24.6552 C   0  0  0  0  0  0  0  0  0  0  0  0
    7.3096   12.3478   25.2179 C   0  0  0  0  0  0  0  0  0  0  0  0
    9.0355   16.5480   22.9594 C   0  0  0  0  0  0  0  0  0  0  0  0
  1  2  1  0
  2  3  2  0
  4  2  1  1
  4  5  1  0
  5  6  1  0
  6  7  1  0
  7  8  1  0
  8  9  1  0
  9 10  2  0
 11  9  1  6
 11 12  1  0
 12 13  1  0
 13 14  1  0
 14 15  1  0
 15 16  2  0
 16 17  1  0
 17 18  2  0
 18 19  1  0
 19 20  2  0
  8 21  1  0
 21  4  1  0
 20 11  1  0
 20 15  1  0
M  END
>  <inchikey>  (4) 
RICWRLKMGADZTG-AAEUAGOBSA-N

>  <alias>  (4) 
None

>  <name>  (4) 
RICWRLKMGADZTG-AAEUAGOBSA-N

>  <smiles>  (4) 
NC(=O)[C@H]1CCCN(C(=O)[C@H]2CCOc3ccccc32)C1

>  <path>  (4) 
/opt/xchem-fragalysis-2/maxwin/BulkDock/SCRATCH/239538/C231-P262/C231-P262.minimised.mol

>  <distance_score>  (4) 
1.168373

>  <energy_score>  (4) 
168.094287

>  <compound>  (4) 
RICWRLKMGADZTG-UHFFFAOYSA-N

>  <compound_id>  (4) 
231

>  <target>  (4) 
A71EV2A

>  <tags>  (4) 
['Fragmenstein placed']

>  <inspirations>  (4) 
A4260a

>  <reference>  (4) 
A4260a

>  <SLURM_JOB_ID>  (4) 
239538

>  <SLURM_JOB_NAME>  (4) 
BulkDock.place:A71EV2A:2A_undecorated_hits_split1000_batch000

>  <csv_name>  (4) 
2A_undecorated_hits_split1000_batch000.csv

>  <scratch_subdir>  (4) 
/opt/xchem-fragalysis-2/maxwin/BulkDock/SCRATCH/239538/C231-P262

>  <fragmenstein_runtime>  (4) 
9.680851

>  <fragmenstein_outcome>  (4) 
too moved

>  <fragmenstein_mode>  (4) 
expansion

>  <fragmenstein_error>  (4) 


$$$$
284
     RDKit          3D

 17 18  0  0  0  0  0  0  0  0999 V2000
    9.8453   16.5500   19.2747 N   0  0  0  0  0  0  0  0  0  0  0  0
   10.7414   15.4649   19.6246 C   0  0  0  0  0  0  0  0  0  0  0  0
   11.4432   14.7786   18.9351 O   0  0  0  0  0  0  0  0  0  0  0  0
   10.7214   15.1208   21.1230 C   0  0  1  0  0  0  0  0  0  0  0  0
   11.1921   16.2133   22.0560 C   0  0  0  0  0  0  0  0  0  0  0  0
   10.8081   15.7761   23.4540 C   0  0  0  0  0  0  0  0  0  0  0  0
    9.3810   15.2130   23.4541 C   0  0  0  0  0  0  0  0  0  0  0  0
    9.2640   13.8413   22.8163 N   0  0  0  0  0  0  0  0  0  0  0  0
    8.1818   13.1204   23.3981 C   0  0  0  0  0  0  0  0  0  0  0  0
    7.0256   13.0557   23.0783 O   0  0  0  0  0  0  0  0  0  0  0  0
    8.7652   12.3163   24.5689 C   0  0  0  0  0  0  0  0  0  0  0  0
    7.7886   11.3332   25.0929 C   0  0  0  0  0  0  0  0  0  0  0  0
    6.6298   11.4887   25.8221 C   0  0  0  0  0  0  0  0  0  0  0  0
    6.1604   10.1852   26.0201 C   0  0  0  0  0  0  0  0  0  0  0  0
    6.9498    9.2736   25.4528 N   0  0  0  0  0  0  0  0  0  0  0  0
    7.9144    9.9934   24.8609 N   0  0  0  0  0  0  0  0  0  0  0  0
    9.3326   14.6559   21.5608 C   0  0  0  0  0  0  0  0  0  0  0  0
  1  2  1  0
  2  3  2  0
  4  2  1  6
  4  5  1  0
  5  6  1  0
  6  7  1  0
  7  8  1  0
  8  9  1  0
  9 10  2  0
  9 11  1  0
 11 12  1  0
 12 13  2  0
 13 14  1  0
 14 15  2  0
 15 16  1  0
  8 17  1  0
 17  4  1  0
 16 12  1  0
M  END
>  <inchikey>  (5) 
WPGNVVSWAWFFDK-QMMMGPOBSA-N

>  <alias>  (5) 
None

>  <name>  (5) 
WPGNVVSWAWFFDK-QMMMGPOBSA-N

>  <smiles>  (5) 
NC(=O)[C@H]1CCCN(C(=O)Cc2ccn[nH]2)C1

>  <path>  (5) 
/opt/xchem-fragalysis-2/maxwin/BulkDock/SCRATCH/239538/C232-P209/C232-P209.minimised.mol

>  <distance_score>  (5) 
0.621211

>  <energy_score>  (5) 
170.493825

>  <compound>  (5) 
WPGNVVSWAWFFDK-UHFFFAOYSA-N

>  <compound_id>  (5) 
232

>  <target>  (5) 
A71EV2A

>  <tags>  (5) 
['Fragmenstein placed']

>  <inspirations>  (5) 
A3606a

>  <reference>  (5) 
A3606a

>  <SLURM_JOB_ID>  (5) 
239538

>  <SLURM_JOB_NAME>  (5) 
BulkDock.place:A71EV2A:2A_undecorated_hits_split1000_batch000

>  <csv_name>  (5) 
2A_undecorated_hits_split1000_batch000.csv

>  <scratch_subdir>  (5) 
/opt/xchem-fragalysis-2/maxwin/BulkDock/SCRATCH/239538/C232-P209

>  <fragmenstein_runtime>  (5) 
5.11937

>  <fragmenstein_outcome>  (5) 
too contorted

>  <fragmenstein_mode>  (5) 
expansion

>  <fragmenstein_error>  (5) 


$$$$
286
     RDKit          3D

 17 18  0  0  0  0  0  0  0  0999 V2000
    8.1841   15.0800   26.5422 O   0  0  0  0  0  0  0  0  0  0  0  0
    7.1926   14.4680   26.5465 C   0  0  0  0  0  0  0  0  0  0  0  0
    6.8407   13.1229   25.8658 N   0  0  0  0  0  0  0  0  0  0  0  0
    7.6394   12.2382   25.1425 C   0  0  0  0  0  0  0  0  0  0  0  0
    7.3156   10.8812   25.2094 C   0  0  0  0  0  0  0  0  0  0  0  0
    8.0903    9.9407   24.5291 C   0  0  0  0  0  0  0  0  0  0  0  0
    9.1718   10.3429   23.7564 C   0  0  0  0  0  0  0  0  0  0  0  0
    9.4711   11.6953   23.6516 C   0  0  0  0  0  0  0  0  0  0  0  0
    8.6954   12.6432   24.3179 C   0  0  0  0  0  0  0  0  0  0  0  0
    8.9610   13.9661   24.0861 O   0  0  0  0  0  0  0  0  0  0  0  0
    8.5130   14.3724   22.7737 C   0  0  0  0  0  0  0  0  0  0  0  0
    7.0098   14.5488   22.7096 C   0  0  0  0  0  0  0  0  0  0  0  0
    6.4793   15.5449   23.4449 N   0  0  0  0  0  0  0  0  0  0  0  0
    5.1445   15.6588   23.4526 C   0  0  0  0  0  0  0  0  0  0  0  0
    4.3149   14.8140   22.7609 C   0  0  0  0  0  0  0  0  0  0  0  0
    4.9429   13.8349   22.0314 C   0  0  0  0  0  0  0  0  0  0  0  0
    6.2801   13.6660   21.9859 N   0  0  0  0  0  0  0  0  0  0  0  0
  1  2  2  0
  2  3  1  0
  3  4  1  0
  4  5  2  0
  5  6  1  0
  6  7  2  0
  7  8  1  0
  8  9  2  0
  9 10  1  0
 10 11  1  0
 11 12  1  0
 12 13  2  0
 13 14  1  0
 14 15  2  0
 15 16  1  0
 16 17  2  0
  9  4  1  0
 17 12  1  0
M  END
>  <inchikey>  (6) 
GERFVVVNVHZPIH-UHFFFAOYSA-N

>  <alias>  (6) 
None

>  <name>  (6) 
GERFVVVNVHZPIH-UHFFFAOYSA-N

>  <smiles>  (6) 
O=CNc1ccccc1OCc1ncccn1

>  <path>  (6) 
/opt/xchem-fragalysis-2/maxwin/BulkDock/SCRATCH/239538/C233-P194/C233-P194.minimised.mol

>  <distance_score>  (6) 
0.525602

>  <energy_score>  (6) 
-34.438454

>  <compound>  (6) 
GERFVVVNVHZPIH-UHFFFAOYSA-N

>  <compound_id>  (6) 
233

>  <target>  (6) 
A71EV2A

>  <tags>  (6) 
['Fragmenstein placed']

>  <inspirations>  (6) 
A3522a

>  <reference>  (6) 
A3522a

>  <SLURM_JOB_ID>  (6) 
239538

>  <SLURM_JOB_NAME>  (6) 
BulkDock.place:A71EV2A:2A_undecorated_hits_split1000_batch000

>  <csv_name>  (6) 
2A_undecorated_hits_split1000_batch000.csv

>  <scratch_subdir>  (6) 
/opt/xchem-fragalysis-2/maxwin/BulkDock/SCRATCH/239538/C233-P194

>  <fragmenstein_runtime>  (6) 
1.609811

>  <fragmenstein_outcome>  (6) 
acceptable

>  <fragmenstein_mode>  (6) 
expansion

>  <fragmenstein_error>  (6) 


$$$$
287
     RDKit          3D

 19 20  0  0  0  0  0  0  0  0999 V2000
   10.6684   14.7577   19.3375 N   0  0  0  0  0  0  0  0  0  0  0  0
   10.0469   15.6441   20.2775 C   0  0  0  0  0  0  0  0  0  0  0  0
    9.5445   16.7176   20.1227 O   0  0  0  0  0  0  0  0  0  0  0  0
   10.1529   15.1396   21.6651 C   0  0  0  0  0  0  0  0  0  0  0  0
   11.4163   14.9227   22.2332 C   0  0  0  0  0  0  0  0  0  0  0  0
   11.5097   14.3872   23.5146 C   0  0  0  0  0  0  0  0  0  0  0  0
   10.3496   14.0898   24.2248 C   0  0  0  0  0  0  0  0  0  0  0  0
    9.0996   14.2978   23.6353 C   0  0  0  0  0  0  0  0  0  0  0  0
    7.9368   14.0526   24.3130 O   0  0  0  0  0  0  0  0  0  0  0  0
    7.6672   12.7740   24.7479 C   0  0  0  0  0  0  0  0  0  0  0  0
    8.2448   11.6340   24.1627 C   0  0  0  0  0  0  0  0  0  0  0  0
    7.8248   10.3574   24.5311 C   0  0  0  0  0  0  0  0  0  0  0  0
    6.7965   10.2138   25.4543 C   0  0  0  0  0  0  0  0  0  0  0  0
    6.2001   11.3391   26.0245 C   0  0  0  0  0  0  0  0  0  0  0  0
    6.6500   12.6244   25.7053 C   0  0  0  0  0  0  0  0  0  0  0  0
    6.0181   13.6866   26.3659 N   0  0  0  0  0  0  0  0  0  0  0  0
    6.4726   15.0156   26.6615 C   0  0  0  0  0  0  0  0  0  0  0  0
    7.5356   15.5356   26.4908 O   0  0  0  0  0  0  0  0  0  0  0  0
    8.9886   14.8458   22.3632 C   0  0  0  0  0  0  0  0  0  0  0  0
  1  2  1  0
  2  3  2  0
  2  4  1  0
  4  5  2  0
  5  6  1  0
  6  7  2  0
  7  8  1  0
  8  9  1  0
  9 10  1  0
 10 11  2  0
 11 12  1  0
 12 13  2  0
 13 14  1  0
 14 15  2  0
 15 16  1  0
 16 17  1  0
 17 18  2  0
  8 19  2  0
 19  4  1  0
 15 10  1  0
M  END
>  <inchikey>  (7) 
UFUUVVFKZLJCEG-UHFFFAOYSA-N

>  <alias>  (7) 
None

>  <name>  (7) 
UFUUVVFKZLJCEG-UHFFFAOYSA-N

>  <smiles>  (7) 
NC(=O)c1cccc(Oc2ccccc2NC=O)c1

>  <path>  (7) 
/opt/xchem-fragalysis-2/maxwin/BulkDock/SCRATCH/239538/C234-P190/C234-P190.minimised.mol

>  <distance_score>  (7) 
0.733529

>  <energy_score>  (7) 
120.957805

>  <compound>  (7) 
UFUUVVFKZLJCEG-UHFFFAOYSA-N

>  <compound_id>  (7) 
234

>  <target>  (7) 
A71EV2A

>  <tags>  (7) 
['Fragmenstein placed']

>  <inspirations>  (7) 
A3488a

>  <reference>  (7) 
A3488a

>  <SLURM_JOB_ID>  (7) 
239538

>  <SLURM_JOB_NAME>  (7) 
BulkDock.place:A71EV2A:2A_undecorated_hits_split1000_batch000

>  <csv_name>  (7) 
2A_undecorated_hits_split1000_batch000.csv

>  <scratch_subdir>  (7) 
/opt/xchem-fragalysis-2/maxwin/BulkDock/SCRATCH/239538/C234-P190

>  <fragmenstein_runtime>  (7) 
5.906559

>  <fragmenstein_outcome>  (7) 
too contorted

>  <fragmenstein_mode>  (7) 
expansion

>  <fragmenstein_error>  (7) 


$$$$
289
     RDKit          3D

 19 20  0  0  0  0  0  0  0  0999 V2000
    9.9172   16.7023   19.0810 N   0  0  0  0  0  0  0  0  0  0  0  0
   10.4685   15.4336   19.4891 C   0  0  0  0  0  0  0  0  0  0  0  0
   11.0723   14.6068   18.8638 O   0  0  0  0  0  0  0  0  0  0  0  0
   10.2818   15.1463   20.9958 C   0  0  1  0  0  0  0  0  0  0  0  0
   11.3510   15.8587   21.8102 C   0  0  0  0  0  0  0  0  0  0  0  0
   11.5305   15.1359   23.1375 C   0  0  0  0  0  0  0  0  0  0  0  0
   10.4065   15.3717   24.1438 C   0  0  0  0  0  0  0  0  0  0  0  0
    9.1283   14.6105   24.0335 N   0  0  0  0  0  0  0  0  0  0  0  0
    8.0486   14.4594   24.9626 C   0  0  0  0  0  0  0  0  0  0  0  0
    7.8571   14.9806   26.0306 O   0  0  0  0  0  0  0  0  0  0  0  0
    7.0156   13.5180   24.3468 C   0  0  0  0  0  0  0  0  0  0  0  0
    6.6907   12.3223   25.1994 C   0  0  0  0  0  0  0  0  0  0  0  0
    5.7581   12.4287   26.2398 C   0  0  0  0  0  0  0  0  0  0  0  0
    5.3611   11.2971   26.9476 C   0  0  0  0  0  0  0  0  0  0  0  0
    5.8901   10.0529   26.6152 C   0  0  0  0  0  0  0  0  0  0  0  0
    6.8519    9.9453   25.6113 C   0  0  0  0  0  0  0  0  0  0  0  0
    7.2661   11.0781   24.9171 C   0  0  0  0  0  0  0  0  0  0  0  0
    8.8042   15.7213   23.0290 C   0  0  0  0  0  0  0  0  0  0  0  0
    8.8659   15.2485   21.5659 C   0  0  0  0  0  0  0  0  0  0  0  0
  1  2  1  0
  2  3  2  0
  4  2  1  6
  4  5  1  0
  5  6  1  0
  6  7  1  0
  7  8  1  0
  8  9  1  0
  9 10  2  0
  9 11  1  0
 11 12  1  0
 12 13  2  0
 13 14  1  0
 14 15  2  0
 15 16  1  0
 16 17  2  0
  8 18  1  0
 18 19  1  0
 19  4  1  0
 17 12  1  0
M  END
>  <inchikey>  (8) 
ZSDQZPIVWCGVNR-ZDUSSCGKSA-N

>  <alias>  (8) 
None

>  <name>  (8) 
ZSDQZPIVWCGVNR-ZDUSSCGKSA-N

>  <smiles>  (8) 
NC(=O)[C@H]1CCCN(C(=O)Cc2ccccc2)CC1

>  <path>  (8) 
/opt/xchem-fragalysis-2/maxwin/BulkDock/SCRATCH/239538/C235-P239/C235-P239.minimised.mol

>  <distance_score>  (8) 
0.733684

>  <energy_score>  (8) 
190.718241

>  <compound>  (8) 
ZSDQZPIVWCGVNR-UHFFFAOYSA-N

>  <compound_id>  (8) 
235

>  <target>  (8) 
A71EV2A

>  <tags>  (8) 
['Fragmenstein placed']

>  <inspirations>  (8) 
A4018a

>  <reference>  (8) 
A4018a

>  <SLURM_JOB_ID>  (8) 
239538

>  <SLURM_JOB_NAME>  (8) 
BulkDock.place:A71EV2A:2A_undecorated_hits_split1000_batch000

>  <csv_name>  (8) 
2A_undecorated_hits_split1000_batch000.csv

>  <scratch_subdir>  (8) 
/opt/xchem-fragalysis-2/maxwin/BulkDock/SCRATCH/239538/C235-P239

>  <fragmenstein_runtime>  (8) 
9.028065

>  <fragmenstein_outcome>  (8) 
too contorted

>  <fragmenstein_mode>  (8) 
expansion

>  <fragmenstein_error>  (8) 


$$$$
291
     RDKit          3D

 18 19  0  0  0  0  0  0  0  0999 V2000
   12.0380   15.6178   19.4734 N   0  0  0  0  0  0  0  0  0  0  0  0
   10.6952   15.7156   19.9852 C   0  0  0  0  0  0  0  0  0  0  0  0
    9.6794   16.0533   19.4493 O   0  0  0  0  0  0  0  0  0  0  0  0
   10.6361   15.2307   21.4382 C   0  0  1  0  0  0  0  0  0  0  0  0
   11.0461   16.3013   22.4277 C   0  0  0  0  0  0  0  0  0  0  0  0
   10.5338   15.8694   23.7919 C   0  0  0  0  0  0  0  0  0  0  0  0
    9.1033   15.2968   23.6819 C   0  0  0  0  0  0  0  0  0  0  0  0
    9.0360   13.9500   22.9630 N   0  0  0  0  0  0  0  0  0  0  0  0
    7.9122   13.2020   23.4216 C   0  0  0  0  0  0  0  0  0  0  0  0
    6.7850   13.1569   23.0107 O   0  0  0  0  0  0  0  0  0  0  0  0
    8.3861   12.2914   24.5549 C   0  0  0  0  0  0  0  0  0  0  0  0
    7.2743   11.7499   25.4195 C   0  0  0  0  0  0  0  0  0  0  0  0
    7.0169   10.3757   25.4650 C   0  0  0  0  0  0  0  0  0  0  0  0
    5.9862    9.8856   26.2657 C   0  0  0  0  0  0  0  0  0  0  0  0
    5.2214   10.7504   27.0441 C   0  0  0  0  0  0  0  0  0  0  0  0
    5.4658   12.1185   27.0012 C   0  0  0  0  0  0  0  0  0  0  0  0
    6.4834   12.6172   26.1885 C   0  0  0  0  0  0  0  0  0  0  0  0
    9.1991   14.8272   21.7628 C   0  0  0  0  0  0  0  0  0  0  0  0
  1  2  1  0
  2  3  2  0
  4  2  1  6
  4  5  1  0
  5  6  1  0
  6  7  1  0
  7  8  1  0
  8  9  1  0
  9 10  2  0
  9 11  1  0
 11 12  1  0
 12 13  2  0
 13 14  1  0
 14 15  2  0
 15 16  1  0
 16 17  2  0
  8 18  1  0
 18  4  1  0
 17 12  1  0
M  END
>  <inchikey>  (9) 
GIUMMMNADIFJAW-LBPRGKRZSA-N

>  <alias>  (9) 
None

>  <name>  (9) 
GIUMMMNADIFJAW-LBPRGKRZSA-N

>  <smiles>  (9) 
NC(=O)[C@H]1CCCN(C(=O)Cc2ccccc2)C1

>  <path>  (9) 
/opt/xchem-fragalysis-2/maxwin/BulkDock/SCRATCH/239538/C228-P215/C228-P215.minimised.mol

>  <distance_score>  (9) 
1.028941

>  <energy_score>  (9) 
191.694819

>  <compound>  (9) 
GIUMMMNADIFJAW-UHFFFAOYSA-N

>  <compound_id>  (9) 
228

>  <target>  (9) 
A71EV2A

>  <tags>  (9) 
['Fragmenstein placed']

>  <inspirations>  (9) 
A3665a

>  <reference>  (9) 
A3665a

>  <SLURM_JOB_ID>  (9) 
239538

>  <SLURM_JOB_NAME>  (9) 
BulkDock.place:A71EV2A:2A_undecorated_hits_split1000_batch000

>  <csv_name>  (9) 
2A_undecorated_hits_split1000_batch000.csv

>  <scratch_subdir>  (9) 
/opt/xchem-fragalysis-2/maxwin/BulkDock/SCRATCH/239538/C228-P215

>  <fragmenstein_runtime>  (9) 
7.392715

>  <fragmenstein_outcome>  (9) 
too moved

>  <fragmenstein_mode>  (9) 
expansion

>  <fragmenstein_error>  (9) 


$$$$
293
     RDKit          3D

 20 22  0  0  0  0  0  0  0  0999 V2000
   10.0955   16.5984   19.1309 N   0  0  0  0  0  0  0  0  0  0  0  0
   10.8208   15.4482   19.6313 C   0  0  0  0  0  0  0  0  0  0  0  0
   11.5201   14.6582   19.0610 O   0  0  0  0  0  0  0  0  0  0  0  0
   10.6293   15.2120   21.1473 C   0  0  1  0  0  0  0  0  0  0  0  0
   11.1684   16.3364   22.0094 C   0  0  0  0  0  0  0  0  0  0  0  0
   10.5958   16.1294   23.3889 C   0  0  0  0  0  0  0  0  0  0  0  0
    9.1004   15.8347   23.2502 C   0  0  0  0  0  0  0  0  0  0  0  0
    8.8255   14.3928   22.8841 N   0  0  0  0  0  0  0  0  0  0  0  0
    7.5768   13.9724   23.4437 C   0  0  0  0  0  0  0  0  0  0  0  0
    6.4656   14.0045   22.9857 O   0  0  0  0  0  0  0  0  0  0  0  0
    7.8261   13.5112   24.8902 C   0  0  1  0  0  0  0  0  0  0  0  0
    7.0050   14.3667   25.8832 C   0  0  0  0  0  0  0  0  0  0  0  0
    5.6861   13.6226   26.1350 C   0  0  0  0  0  0  0  0  0  0  0  0
    6.1033   12.2055   25.9137 C   0  0  0  0  0  0  0  0  0  0  0  0
    5.4261   11.0599   26.2845 C   0  0  0  0  0  0  0  0  0  0  0  0
    5.9727    9.8302   25.9245 C   0  0  0  0  0  0  0  0  0  0  0  0
    7.1775    9.7619   25.2054 C   0  0  0  0  0  0  0  0  0  0  0  0
    7.8508   10.9224   24.8287 C   0  0  0  0  0  0  0  0  0  0  0  0
    7.2983   12.1385   25.1871 C   0  0  0  0  0  0  0  0  0  0  0  0
    9.1640   14.9049   21.5020 C   0  0  0  0  0  0  0  0  0  0  0  0
  1  2  1  0
  2  3  2  0
  4  2  1  6
  4  5  1  0
  5  6  1  0
  6  7  1  0
  7  8  1  0
  8  9  1  0
  9 10  2  0
 11  9  1  6
 11 12  1  0
 12 13  1  0
 13 14  1  0
 14 15  2  0
 15 16  1  0
 16 17  2  0
 17 18  1  0
 18 19  2  0
  8 20  1  0
 20  4  1  0
 19 11  1  0
 19 14  1  0
M  END
>  <inchikey>  (10) 
QLOUCWDEXUZFHL-JSGCOSHPSA-N

>  <alias>  (10) 
None

>  <name>  (10) 
QLOUCWDEXUZFHL-JSGCOSHPSA-N

>  <smiles>  (10) 
NC(=O)[C@H]1CCCN(C(=O)[C@H]2CCc3ccccc32)C1

>  <path>  (10) 
/opt/xchem-fragalysis-2/maxwin/BulkDock/SCRATCH/239538/C236-P258/C236-P258.minimised.mol

>  <distance_score>  (10) 
0.582662

>  <energy_score>  (10) 
174.274224

>  <compound>  (10) 
QLOUCWDEXUZFHL-UHFFFAOYSA-N

>  <compound_id>  (10) 
236

>  <target>  (10) 
A71EV2A

>  <tags>  (10) 
['Fragmenstein placed']

>  <inspirations>  (10) 
A4202a

>  <reference>  (10) 
A4202a

>  <SLURM_JOB_ID>  (10) 
239538

>  <SLURM_JOB_NAME>  (10) 
BulkDock.place:A71EV2A:2A_undecorated_hits_split1000_batch000

>  <csv_name>  (10) 
2A_undecorated_hits_split1000_batch000.csv

>  <scratch_subdir>  (10) 
/opt/xchem-fragalysis-2/maxwin/BulkDock/SCRATCH/239538/C236-P258

>  <fragmenstein_runtime>  (10) 
5.674851

>  <fragmenstein_outcome>  (10) 
too contorted

>  <fragmenstein_mode>  (10) 
expansion

>  <fragmenstein_error>  (10) 


$$$$
294
     RDKit          3D

 17 18  0  0  0  0  0  0  0  0999 V2000
   12.9953   13.0535   24.6553 N   0  0  0  0  0  0  0  0  0  0  0  0
   12.1497   14.1422   24.1710 C   0  0  0  0  0  0  0  0  0  0  0  0
   12.4330   15.1446   23.5792 O   0  0  0  0  0  0  0  0  0  0  0  0
   10.7054   13.9652   24.5739 C   0  0  1  0  0  0  0  0  0  0  0  0
    9.9700   15.2611   24.7229 C   0  0  0  0  0  0  0  0  0  0  0  0
    8.7517   14.9394   23.8957 C   0  0  0  0  0  0  0  0  0  0  0  0
    8.3725   13.5217   24.1328 N   0  0  0  0  0  0  0  0  0  0  0  0
    7.4418   12.6840   23.4607 C   0  0  0  0  0  0  0  0  0  0  0  0
    6.7868   12.8797   22.4722 O   0  0  0  0  0  0  0  0  0  0  0  0
    7.2983   11.4047   24.2847 C   0  0  0  0  0  0  0  0  0  0  0  0
    6.3347   11.4675   25.4460 C   0  0  0  0  0  0  0  0  0  0  0  0
    6.0460   10.2736   26.1177 C   0  0  0  0  0  0  0  0  0  0  0  0
    5.1994   10.2613   27.2267 C   0  0  0  0  0  0  0  0  0  0  0  0
    4.6252   11.4443   27.6784 C   0  0  0  0  0  0  0  0  0  0  0  0
    4.8865   12.6361   27.0096 C   0  0  0  0  0  0  0  0  0  0  0  0
    5.7346   12.6485   25.9002 C   0  0  0  0  0  0  0  0  0  0  0  0
    9.7773   13.2938   23.5938 C   0  0  0  0  0  0  0  0  0  0  0  0
  1  2  1  0
  2  3  2  0
  4  2  1  6
  4  5  1  0
  5  6  1  0
  6  7  1  0
  7  8  1  0
  8  9  2  0
  8 10  1  0
 10 11  1  0
 11 12  2  0
 12 13  1  0
 13 14  2  0
 14 15  1  0
 15 16  2  0
  7 17  1  0
 17  4  1  0
 16 11  1  0
M  END
>  <inchikey>  (11) 
XTWTYNRPFALZKI-NSHDSACASA-N

>  <alias>  (11) 
None

>  <name>  (11) 
XTWTYNRPFALZKI-NSHDSACASA-N

>  <smiles>  (11) 
NC(=O)[C@H]1CCN(C(=O)Cc2ccccc2)C1

>  <path>  (11) 
/opt/xchem-fragalysis-2/maxwin/BulkDock/SCRATCH/239538/C237-P250/C237-P250.minimised.mol

>  <distance_score>  (11) 
2.195145

>  <energy_score>  (11) 
213.303434

>  <compound>  (11) 
XTWTYNRPFALZKI-UHFFFAOYSA-N

>  <compound_id>  (11) 
237

>  <target>  (11) 
A71EV2A

>  <tags>  (11) 
['Fragmenstein placed']

>  <inspirations>  (11) 
A4317a

>  <reference>  (11) 
A4317a

>  <SLURM_JOB_ID>  (11) 
239538

>  <SLURM_JOB_NAME>  (11) 
BulkDock.place:A71EV2A:2A_undecorated_hits_split1000_batch000

>  <csv_name>  (11) 
2A_undecorated_hits_split1000_batch000.csv

>  <scratch_subdir>  (11) 
/opt/xchem-fragalysis-2/maxwin/BulkDock/SCRATCH/239538/C237-P250

>  <fragmenstein_runtime>  (11) 
6.934635

>  <fragmenstein_outcome>  (11) 
too moved

>  <fragmenstein_mode>  (11) 
expansion

>  <fragmenstein_error>  (11) 


$$$$
297
     RDKit          3D

 22 23  0  0  0  0  0  0  0  0999 V2000
   10.5874   14.7646   19.5005 N   0  0  0  0  0  0  0  0  0  0  0  0
   10.0431   15.6683   20.4895 C   0  0  0  0  0  0  0  0  0  0  0  0
    9.7611   16.8290   20.4133 O   0  0  0  0  0  0  0  0  0  0  0  0
    9.9342   14.9630   21.8507 C   0  0  1  0  0  0  0  0  0  0  0  0
   11.3414   14.8645   22.4247 C   0  0  0  0  0  0  0  0  0  0  0  0
   11.2812   14.7701   23.9272 C   0  0  0  0  0  0  0  0  0  0  0  0
   10.1648   15.6781   24.4347 C   0  0  0  0  0  0  0  0  0  0  0  0
    8.7897   15.0894   24.1668 N   0  0  0  0  0  0  0  0  0  0  0  0
    7.8923   15.4333   25.2268 C   0  0  0  0  0  0  0  0  0  0  0  0
    7.1512   16.3768   25.3516 O   0  0  0  0  0  0  0  0  0  0  0  0
    8.0222   14.3899   26.3764 C   0  0  1  0  0  0  0  0  0  0  0  0
    7.4936   15.0315   27.5648 N   0  0  0  0  0  0  0  0  0  0  0  0
    8.0805   15.2876   28.8116 C   0  0  0  0  0  0  0  0  0  0  0  0
    9.1405   14.9767   29.2518 O   0  0  0  0  0  0  0  0  0  0  0  0
    7.2337   16.0137   29.5723 O   0  0  0  0  0  0  0  0  0  0  0  0
    7.3708   13.0516   26.0817 C   0  0  0  0  0  0  0  0  0  0  0  0
    6.0236   12.7976   26.3701 C   0  0  0  0  0  0  0  0  0  0  0  0
    5.4894   11.5209   26.1915 C   0  0  0  0  0  0  0  0  0  0  0  0
    6.2806   10.4881   25.6936 C   0  0  0  0  0  0  0  0  0  0  0  0
    7.6052   10.7340   25.3504 C   0  0  0  0  0  0  0  0  0  0  0  0
    8.1463   12.0063   25.5442 C   0  0  0  0  0  0  0  0  0  0  0  0
    9.0164   15.7354   22.8123 C   0  0  0  0  0  0  0  0  0  0  0  0
  1  2  1  0
  2  3  2  0
  4  2  1  6
  4  5  1  0
  5  6  1  0
  6  7  1  0
  7  8  1  0
  8  9  1  0
  9 10  2  0
  9 11  1  0
 11 12  1  1
 12 13  1  0
 13 14  2  0
 13 15  1  0
 11 16  1  0
 16 17  2  0
 17 18  1  0
 18 19  2  0
 19 20  1  0
 20 21  2  0
  8 22  1  0
 22  4  1  0
 21 16  1  0
M  END
>  <inchikey>  (12) 
BAMWOSHLHPSGGA-RYUDHWBXSA-N

>  <alias>  (12) 
None

>  <name>  (12) 
BAMWOSHLHPSGGA-RYUDHWBXSA-N

>  <smiles>  (12) 
NC(=O)[C@H]1CCCN(C(=O)[C@@H](NC(=O)O)c2ccccc2)C1

>  <path>  (12) 
/opt/xchem-fragalysis-2/maxwin/BulkDock/SCRATCH/239538/C238-P224/C238-P224.minimised.mol

>  <distance_score>  (12) 
1.617908

>  <energy_score>  (12) 
-53.033675

>  <compound>  (12) 
BAMWOSHLHPSGGA-UHFFFAOYSA-N

>  <compound_id>  (12) 
238

>  <target>  (12) 
A71EV2A

>  <tags>  (12) 
['Fragmenstein placed']

>  <inspirations>  (12) 
A3884a

>  <reference>  (12) 
A3884a

>  <SLURM_JOB_ID>  (12) 
239538

>  <SLURM_JOB_NAME>  (12) 
BulkDock.place:A71EV2A:2A_undecorated_hits_split1000_batch000

>  <csv_name>  (12) 
2A_undecorated_hits_split1000_batch000.csv

>  <scratch_subdir>  (12) 
/opt/xchem-fragalysis-2/maxwin/BulkDock/SCRATCH/239538/C238-P224

>  <fragmenstein_runtime>  (12) 
14.416265

>  <fragmenstein_outcome>  (12) 
too moved

>  <fragmenstein_mode>  (12) 
expansion

>  <fragmenstein_error>  (12) 


$$$$
